gem5 Simulator System.  http://gem5.org
gem5 is copyrighted software; use the --copyright option for details.

gem5 compiled Apr 20 2016 04:40:23
gem5 started Apr 20 2016 17:54:42
gem5 executing on galapagos-29.cs.wisc.edu, pid 22594
command line: build/X86/gem5.opt --debug-flags=RubyCache configs/example/se.py --ruby -c tests/test-progs/hello/bin/x86/linux/hello

Global frequency set at 1000000000000 ticks per second
      0: system.ruby.l1_cntrl0.L1Dcache.replacement_policy: Ezhil: AbstractReplacementPolicy: Const: Entry
      0: system.ruby.l1_cntrl0.L1Dcache.replacement_policy: Ezhil: AbstractReplacementPolicy: Exit: m_assoc:2 m_num_sets:512
      0: system.ruby.l1_cntrl0.L1Icache.replacement_policy: Ezhil: AbstractReplacementPolicy: Const: Entry
      0: system.ruby.l1_cntrl0.L1Icache.replacement_policy: Ezhil: AbstractReplacementPolicy: Exit: m_assoc:2 m_num_sets:256
      0: system.ruby.l2_cntrl0.L2cache.replacement_policy: Ezhil: AbstractReplacementPolicy: Const: Entry
      0: system.ruby.l2_cntrl0.L2cache.replacement_policy: Ezhil: AbstractReplacementPolicy: Exit: m_assoc:8 m_num_sets:4096
      0: system.ruby.dir_cntrl0.directory: Ezhil: DirectoryMem Init: Entry : BlockSize 64
      0: system.ruby.dir_cntrl0.directory: Ezhil: DirectoryMem Init: Exit : m_num_entries:8388608 m_num_directories:1 
      0: system.ruby.dir_cntrl0.directory: Ezhil: DirectoryMem Init: exit : MemorySizeBits from rubysystem 48
      0: system.ruby.l1_cntrl0.L1Dcache: Ezhil: CacheMemory:init(): Entry
      0: system.ruby.l1_cntrl0.L1Dcache: Ezhil: CacheMemory:init(): Exit m_cache_size:65536 m_cache_assoc:2 m_cache_num_sets:512 
      0: system.ruby.l1_cntrl0.L1Icache: Ezhil: CacheMemory:init(): Entry
      0: system.ruby.l1_cntrl0.L1Icache: Ezhil: CacheMemory:init(): Exit m_cache_size:32768 m_cache_assoc:2 m_cache_num_sets:256 
      0: system.ruby.l2_cntrl0.L2cache: Ezhil: CacheMemory:init(): Entry
      0: system.ruby.l2_cntrl0.L2cache: Ezhil: CacheMemory:init(): Exit m_cache_size:2097152 m_cache_assoc:8 m_cache_num_sets:4096 
      0: system.ruby.dir_cntrl0.directory: Looking up address: 0
      0: system.ruby.dir_cntrl0.directory: Looking up address: 0
      0: system.ruby.dir_cntrl0.directory: Looking up address: 0x40
      0: system.ruby.dir_cntrl0.directory: Looking up address: 0x40
      0: system.ruby.dir_cntrl0.directory: Looking up address: 0x80
      0: system.ruby.dir_cntrl0.directory: Looking up address: 0x80
      0: system.ruby.dir_cntrl0.directory: Looking up address: 0xc0
      0: system.ruby.dir_cntrl0.directory: Looking up address: 0xc0
      0: system.ruby.dir_cntrl0.directory: Looking up address: 0x100
      0: system.ruby.dir_cntrl0.directory: Looking up address: 0x100
      0: system.ruby.dir_cntrl0.directory: Looking up address: 0x140
      0: system.ruby.dir_cntrl0.directory: Looking up address: 0x140
      0: system.ruby.dir_cntrl0.directory: Looking up address: 0x180
      0: system.ruby.dir_cntrl0.directory: Looking up address: 0x180
      0: system.ruby.dir_cntrl0.directory: Looking up address: 0x1c0
      0: system.ruby.dir_cntrl0.directory: Looking up address: 0x1c0
      0: system.ruby.dir_cntrl0.directory: Looking up address: 0x200
      0: system.ruby.dir_cntrl0.directory: Looking up address: 0x200
      0: system.ruby.dir_cntrl0.directory: Looking up address: 0x240
      0: system.ruby.dir_cntrl0.directory: Looking up address: 0x240
      0: system.ruby.dir_cntrl0.directory: Looking up address: 0x280
      0: system.ruby.dir_cntrl0.directory: Looking up address: 0x280
      0: system.ruby.dir_cntrl0.directory: Looking up address: 0x2c0
      0: system.ruby.dir_cntrl0.directory: Looking up address: 0x2c0
      0: system.ruby.dir_cntrl0.directory: Looking up address: 0x300
      0: system.ruby.dir_cntrl0.directory: Looking up address: 0x300
      0: system.ruby.dir_cntrl0.directory: Looking up address: 0x340
      0: system.ruby.dir_cntrl0.directory: Looking up address: 0x340
      0: system.ruby.dir_cntrl0.directory: Looking up address: 0x380
      0: system.ruby.dir_cntrl0.directory: Looking up address: 0x380
      0: system.ruby.dir_cntrl0.directory: Looking up address: 0x3c0
      0: system.ruby.dir_cntrl0.directory: Looking up address: 0x3c0
      0: system.ruby.dir_cntrl0.directory: Looking up address: 0x400
      0: system.ruby.dir_cntrl0.directory: Looking up address: 0x400
      0: system.ruby.dir_cntrl0.directory: Looking up address: 0x440
      0: system.ruby.dir_cntrl0.directory: Looking up address: 0x440
      0: system.ruby.dir_cntrl0.directory: Looking up address: 0x480
      0: system.ruby.dir_cntrl0.directory: Looking up address: 0x480
      0: system.ruby.dir_cntrl0.directory: Looking up address: 0x4c0
      0: system.ruby.dir_cntrl0.directory: Looking up address: 0x4c0
      0: system.ruby.dir_cntrl0.directory: Looking up address: 0x500
      0: system.ruby.dir_cntrl0.directory: Looking up address: 0x500
      0: system.ruby.dir_cntrl0.directory: Looking up address: 0x540
      0: system.ruby.dir_cntrl0.directory: Looking up address: 0x540
      0: system.ruby.dir_cntrl0.directory: Looking up address: 0x580
      0: system.ruby.dir_cntrl0.directory: Looking up address: 0x580
      0: system.ruby.dir_cntrl0.directory: Looking up address: 0x5c0
      0: system.ruby.dir_cntrl0.directory: Looking up address: 0x5c0
      0: system.ruby.dir_cntrl0.directory: Looking up address: 0x600
      0: system.ruby.dir_cntrl0.directory: Looking up address: 0x600
      0: system.ruby.dir_cntrl0.directory: Looking up address: 0x640
      0: system.ruby.dir_cntrl0.directory: Looking up address: 0x640
      0: system.ruby.dir_cntrl0.directory: Looking up address: 0x680
      0: system.ruby.dir_cntrl0.directory: Looking up address: 0x680
      0: system.ruby.dir_cntrl0.directory: Looking up address: 0x6c0
      0: system.ruby.dir_cntrl0.directory: Looking up address: 0x6c0
      0: system.ruby.dir_cntrl0.directory: Looking up address: 0x700
      0: system.ruby.dir_cntrl0.directory: Looking up address: 0x700
      0: system.ruby.dir_cntrl0.directory: Looking up address: 0x740
      0: system.ruby.dir_cntrl0.directory: Looking up address: 0x740
      0: system.ruby.dir_cntrl0.directory: Looking up address: 0x780
      0: system.ruby.dir_cntrl0.directory: Looking up address: 0x780
      0: system.ruby.dir_cntrl0.directory: Looking up address: 0x7c0
      0: system.ruby.dir_cntrl0.directory: Looking up address: 0x7c0
      0: system.ruby.dir_cntrl0.directory: Looking up address: 0x800
      0: system.ruby.dir_cntrl0.directory: Looking up address: 0x800
      0: system.ruby.dir_cntrl0.directory: Looking up address: 0x840
      0: system.ruby.dir_cntrl0.directory: Looking up address: 0x840
      0: system.ruby.dir_cntrl0.directory: Looking up address: 0x880
      0: system.ruby.dir_cntrl0.directory: Looking up address: 0x880
      0: system.ruby.dir_cntrl0.directory: Looking up address: 0x8c0
      0: system.ruby.dir_cntrl0.directory: Looking up address: 0x8c0
      0: system.ruby.dir_cntrl0.directory: Looking up address: 0x900
      0: system.ruby.dir_cntrl0.directory: Looking up address: 0x900
      0: system.ruby.dir_cntrl0.directory: Looking up address: 0x940
      0: system.ruby.dir_cntrl0.directory: Looking up address: 0x940
      0: system.ruby.dir_cntrl0.directory: Looking up address: 0x980
      0: system.ruby.dir_cntrl0.directory: Looking up address: 0x980
      0: system.ruby.dir_cntrl0.directory: Looking up address: 0x9c0
      0: system.ruby.dir_cntrl0.directory: Looking up address: 0x9c0
      0: system.ruby.dir_cntrl0.directory: Looking up address: 0xa00
      0: system.ruby.dir_cntrl0.directory: Looking up address: 0xa00
      0: system.ruby.dir_cntrl0.directory: Looking up address: 0xa40
      0: system.ruby.dir_cntrl0.directory: Looking up address: 0xa40
      0: system.ruby.dir_cntrl0.directory: Looking up address: 0xa80
      0: system.ruby.dir_cntrl0.directory: Looking up address: 0xa80
      0: system.ruby.dir_cntrl0.directory: Looking up address: 0xac0
      0: system.ruby.dir_cntrl0.directory: Looking up address: 0xac0
      0: system.ruby.dir_cntrl0.directory: Looking up address: 0xb00
      0: system.ruby.dir_cntrl0.directory: Looking up address: 0xb00
      0: system.ruby.dir_cntrl0.directory: Looking up address: 0xb40
      0: system.ruby.dir_cntrl0.directory: Looking up address: 0xb40
      0: system.ruby.dir_cntrl0.directory: Looking up address: 0xb80
      0: system.ruby.dir_cntrl0.directory: Looking up address: 0xb80
      0: system.ruby.dir_cntrl0.directory: Looking up address: 0xbc0
      0: system.ruby.dir_cntrl0.directory: Looking up address: 0xbc0
      0: system.ruby.dir_cntrl0.directory: Looking up address: 0xc00
      0: system.ruby.dir_cntrl0.directory: Looking up address: 0xc00
      0: system.ruby.dir_cntrl0.directory: Looking up address: 0xc40
      0: system.ruby.dir_cntrl0.directory: Looking up address: 0xc40
      0: system.ruby.dir_cntrl0.directory: Looking up address: 0xc80
      0: system.ruby.dir_cntrl0.directory: Looking up address: 0xc80
      0: system.ruby.dir_cntrl0.directory: Looking up address: 0xcc0
      0: system.ruby.dir_cntrl0.directory: Looking up address: 0xcc0
      0: system.ruby.dir_cntrl0.directory: Looking up address: 0xd00
      0: system.ruby.dir_cntrl0.directory: Looking up address: 0xd00
      0: system.ruby.dir_cntrl0.directory: Looking up address: 0xd40
      0: system.ruby.dir_cntrl0.directory: Looking up address: 0xd40
      0: system.ruby.dir_cntrl0.directory: Looking up address: 0xd80
      0: system.ruby.dir_cntrl0.directory: Looking up address: 0xd80
      0: system.ruby.dir_cntrl0.directory: Looking up address: 0xdc0
      0: system.ruby.dir_cntrl0.directory: Looking up address: 0xdc0
      0: system.ruby.dir_cntrl0.directory: Looking up address: 0xe00
      0: system.ruby.dir_cntrl0.directory: Looking up address: 0xe00
      0: system.ruby.dir_cntrl0.directory: Looking up address: 0xe40
      0: system.ruby.dir_cntrl0.directory: Looking up address: 0xe40
      0: system.ruby.dir_cntrl0.directory: Looking up address: 0xe80
      0: system.ruby.dir_cntrl0.directory: Looking up address: 0xe80
      0: system.ruby.dir_cntrl0.directory: Looking up address: 0xec0
      0: system.ruby.dir_cntrl0.directory: Looking up address: 0xec0
      0: system.ruby.dir_cntrl0.directory: Looking up address: 0xf00
      0: system.ruby.dir_cntrl0.directory: Looking up address: 0xf00
      0: system.ruby.dir_cntrl0.directory: Looking up address: 0xf40
      0: system.ruby.dir_cntrl0.directory: Looking up address: 0xf40
      0: system.ruby.dir_cntrl0.directory: Looking up address: 0xf80
      0: system.ruby.dir_cntrl0.directory: Looking up address: 0xf80
      0: system.ruby.dir_cntrl0.directory: Looking up address: 0xfc0
      0: system.ruby.dir_cntrl0.directory: Looking up address: 0xfc0
      0: system.ruby.dir_cntrl0.directory: Looking up address: 0x1000
      0: system.ruby.dir_cntrl0.directory: Looking up address: 0x1000
      0: system.ruby.dir_cntrl0.directory: Looking up address: 0x1040
      0: system.ruby.dir_cntrl0.directory: Looking up address: 0x1040
      0: system.ruby.dir_cntrl0.directory: Looking up address: 0x1080
      0: system.ruby.dir_cntrl0.directory: Looking up address: 0x1080
      0: system.ruby.dir_cntrl0.directory: Looking up address: 0x10c0
      0: system.ruby.dir_cntrl0.directory: Looking up address: 0x10c0
      0: system.ruby.dir_cntrl0.directory: Looking up address: 0x1100
      0: system.ruby.dir_cntrl0.directory: Looking up address: 0x1100
      0: system.ruby.dir_cntrl0.directory: Looking up address: 0x1140
      0: system.ruby.dir_cntrl0.directory: Looking up address: 0x1140
      0: system.ruby.dir_cntrl0.directory: Looking up address: 0x1180
      0: system.ruby.dir_cntrl0.directory: Looking up address: 0x1180
      0: system.ruby.dir_cntrl0.directory: Looking up address: 0x11c0
      0: system.ruby.dir_cntrl0.directory: Looking up address: 0x11c0
      0: system.ruby.dir_cntrl0.directory: Looking up address: 0x1200
      0: system.ruby.dir_cntrl0.directory: Looking up address: 0x1200
      0: system.ruby.dir_cntrl0.directory: Looking up address: 0x1240
      0: system.ruby.dir_cntrl0.directory: Looking up address: 0x1240
      0: system.ruby.dir_cntrl0.directory: Looking up address: 0x1280
      0: system.ruby.dir_cntrl0.directory: Looking up address: 0x1280
      0: system.ruby.dir_cntrl0.directory: Looking up address: 0x12c0
      0: system.ruby.dir_cntrl0.directory: Looking up address: 0x12c0
      0: system.ruby.dir_cntrl0.directory: Looking up address: 0x1300
      0: system.ruby.dir_cntrl0.directory: Looking up address: 0x1300
      0: system.ruby.dir_cntrl0.directory: Looking up address: 0x1340
      0: system.ruby.dir_cntrl0.directory: Looking up address: 0x1340
      0: system.ruby.dir_cntrl0.directory: Looking up address: 0x1380
      0: system.ruby.dir_cntrl0.directory: Looking up address: 0x1380
      0: system.ruby.dir_cntrl0.directory: Looking up address: 0x13c0
      0: system.ruby.dir_cntrl0.directory: Looking up address: 0x13c0
      0: system.ruby.dir_cntrl0.directory: Looking up address: 0x1400
      0: system.ruby.dir_cntrl0.directory: Looking up address: 0x1400
      0: system.ruby.dir_cntrl0.directory: Looking up address: 0x1440
      0: system.ruby.dir_cntrl0.directory: Looking up address: 0x1440
      0: system.ruby.dir_cntrl0.directory: Looking up address: 0x1480
      0: system.ruby.dir_cntrl0.directory: Looking up address: 0x1480
      0: system.ruby.dir_cntrl0.directory: Looking up address: 0x14c0
      0: system.ruby.dir_cntrl0.directory: Looking up address: 0x14c0
      0: system.ruby.dir_cntrl0.directory: Looking up address: 0x1500
      0: system.ruby.dir_cntrl0.directory: Looking up address: 0x1500
      0: system.ruby.dir_cntrl0.directory: Looking up address: 0x1540
      0: system.ruby.dir_cntrl0.directory: Looking up address: 0x1540
      0: system.ruby.dir_cntrl0.directory: Looking up address: 0x1580
      0: system.ruby.dir_cntrl0.directory: Looking up address: 0x1580
      0: system.ruby.dir_cntrl0.directory: Looking up address: 0x15c0
      0: system.ruby.dir_cntrl0.directory: Looking up address: 0x15c0
      0: system.ruby.dir_cntrl0.directory: Looking up address: 0x1600
      0: system.ruby.dir_cntrl0.directory: Looking up address: 0x1600
      0: system.ruby.dir_cntrl0.directory: Looking up address: 0x1640
      0: system.ruby.dir_cntrl0.directory: Looking up address: 0x1640
      0: system.ruby.dir_cntrl0.directory: Looking up address: 0x1680
      0: system.ruby.dir_cntrl0.directory: Looking up address: 0x1680
      0: system.ruby.dir_cntrl0.directory: Looking up address: 0x16c0
      0: system.ruby.dir_cntrl0.directory: Looking up address: 0x16c0
      0: system.ruby.dir_cntrl0.directory: Looking up address: 0x1700
      0: system.ruby.dir_cntrl0.directory: Looking up address: 0x1700
      0: system.ruby.dir_cntrl0.directory: Looking up address: 0x1740
      0: system.ruby.dir_cntrl0.directory: Looking up address: 0x1740
      0: system.ruby.dir_cntrl0.directory: Looking up address: 0x1780
      0: system.ruby.dir_cntrl0.directory: Looking up address: 0x1780
      0: system.ruby.dir_cntrl0.directory: Looking up address: 0x17c0
      0: system.ruby.dir_cntrl0.directory: Looking up address: 0x17c0
      0: system.ruby.dir_cntrl0.directory: Looking up address: 0x1800
      0: system.ruby.dir_cntrl0.directory: Looking up address: 0x1800
      0: system.ruby.dir_cntrl0.directory: Looking up address: 0x1840
      0: system.ruby.dir_cntrl0.directory: Looking up address: 0x1840
      0: system.ruby.dir_cntrl0.directory: Looking up address: 0x1880
      0: system.ruby.dir_cntrl0.directory: Looking up address: 0x1880
      0: system.ruby.dir_cntrl0.directory: Looking up address: 0x18c0
      0: system.ruby.dir_cntrl0.directory: Looking up address: 0x18c0
      0: system.ruby.dir_cntrl0.directory: Looking up address: 0x1900
      0: system.ruby.dir_cntrl0.directory: Looking up address: 0x1900
      0: system.ruby.dir_cntrl0.directory: Looking up address: 0x1940
      0: system.ruby.dir_cntrl0.directory: Looking up address: 0x1940
      0: system.ruby.dir_cntrl0.directory: Looking up address: 0x1980
      0: system.ruby.dir_cntrl0.directory: Looking up address: 0x1980
      0: system.ruby.dir_cntrl0.directory: Looking up address: 0x19c0
      0: system.ruby.dir_cntrl0.directory: Looking up address: 0x19c0
      0: system.ruby.dir_cntrl0.directory: Looking up address: 0x1a00
      0: system.ruby.dir_cntrl0.directory: Looking up address: 0x1a00
      0: system.ruby.dir_cntrl0.directory: Looking up address: 0x1a40
      0: system.ruby.dir_cntrl0.directory: Looking up address: 0x1a40
      0: system.ruby.dir_cntrl0.directory: Looking up address: 0x1a80
      0: system.ruby.dir_cntrl0.directory: Looking up address: 0x1a80
      0: system.ruby.dir_cntrl0.directory: Looking up address: 0x1ac0
      0: system.ruby.dir_cntrl0.directory: Looking up address: 0x1ac0
      0: system.ruby.dir_cntrl0.directory: Looking up address: 0x1b00
      0: system.ruby.dir_cntrl0.directory: Looking up address: 0x1b00
      0: system.ruby.dir_cntrl0.directory: Looking up address: 0x1b40
      0: system.ruby.dir_cntrl0.directory: Looking up address: 0x1b40
      0: system.ruby.dir_cntrl0.directory: Looking up address: 0x1b80
      0: system.ruby.dir_cntrl0.directory: Looking up address: 0x1b80
      0: system.ruby.dir_cntrl0.directory: Looking up address: 0x1bc0
      0: system.ruby.dir_cntrl0.directory: Looking up address: 0x1bc0
      0: system.ruby.dir_cntrl0.directory: Looking up address: 0x1c00
      0: system.ruby.dir_cntrl0.directory: Looking up address: 0x1c00
      0: system.ruby.dir_cntrl0.directory: Looking up address: 0x1c40
      0: system.ruby.dir_cntrl0.directory: Looking up address: 0x1c40
      0: system.ruby.dir_cntrl0.directory: Looking up address: 0x1c80
      0: system.ruby.dir_cntrl0.directory: Looking up address: 0x1c80
      0: system.ruby.dir_cntrl0.directory: Looking up address: 0x1cc0
      0: system.ruby.dir_cntrl0.directory: Looking up address: 0x1cc0
      0: system.ruby.dir_cntrl0.directory: Looking up address: 0x1d00
      0: system.ruby.dir_cntrl0.directory: Looking up address: 0x1d00
      0: system.ruby.dir_cntrl0.directory: Looking up address: 0x1d40
      0: system.ruby.dir_cntrl0.directory: Looking up address: 0x1d40
      0: system.ruby.dir_cntrl0.directory: Looking up address: 0x1d80
      0: system.ruby.dir_cntrl0.directory: Looking up address: 0x1d80
      0: system.ruby.dir_cntrl0.directory: Looking up address: 0x1dc0
      0: system.ruby.dir_cntrl0.directory: Looking up address: 0x1dc0
      0: system.ruby.dir_cntrl0.directory: Looking up address: 0x1e00
      0: system.ruby.dir_cntrl0.directory: Looking up address: 0x1e00
      0: system.ruby.dir_cntrl0.directory: Looking up address: 0x1e40
      0: system.ruby.dir_cntrl0.directory: Looking up address: 0x1e40
      0: system.ruby.dir_cntrl0.directory: Looking up address: 0x1e80
      0: system.ruby.dir_cntrl0.directory: Looking up address: 0x1e80
      0: system.ruby.dir_cntrl0.directory: Looking up address: 0x1ec0
      0: system.ruby.dir_cntrl0.directory: Looking up address: 0x1ec0
      0: system.ruby.dir_cntrl0.directory: Looking up address: 0x1f00
      0: system.ruby.dir_cntrl0.directory: Looking up address: 0x1f00
      0: system.ruby.dir_cntrl0.directory: Looking up address: 0x1f40
      0: system.ruby.dir_cntrl0.directory: Looking up address: 0x1f40
      0: system.ruby.dir_cntrl0.directory: Looking up address: 0x1f80
      0: system.ruby.dir_cntrl0.directory: Looking up address: 0x1f80
      0: system.ruby.dir_cntrl0.directory: Looking up address: 0x1fc0
      0: system.ruby.dir_cntrl0.directory: Looking up address: 0x1fc0
      0: system.ruby.dir_cntrl0.directory: Looking up address: 0x2000
      0: system.ruby.dir_cntrl0.directory: Looking up address: 0x2000
      0: system.ruby.dir_cntrl0.directory: Looking up address: 0x2040
      0: system.ruby.dir_cntrl0.directory: Looking up address: 0x2040
      0: system.ruby.dir_cntrl0.directory: Looking up address: 0x2080
      0: system.ruby.dir_cntrl0.directory: Looking up address: 0x2080
      0: system.ruby.dir_cntrl0.directory: Looking up address: 0x20c0
      0: system.ruby.dir_cntrl0.directory: Looking up address: 0x20c0
      0: system.ruby.dir_cntrl0.directory: Looking up address: 0x2100
      0: system.ruby.dir_cntrl0.directory: Looking up address: 0x2100
      0: system.ruby.dir_cntrl0.directory: Looking up address: 0x2140
      0: system.ruby.dir_cntrl0.directory: Looking up address: 0x2140
      0: system.ruby.dir_cntrl0.directory: Looking up address: 0x2180
      0: system.ruby.dir_cntrl0.directory: Looking up address: 0x2180
      0: system.ruby.dir_cntrl0.directory: Looking up address: 0x21c0
      0: system.ruby.dir_cntrl0.directory: Looking up address: 0x21c0
      0: system.ruby.dir_cntrl0.directory: Looking up address: 0x2200
      0: system.ruby.dir_cntrl0.directory: Looking up address: 0x2200
      0: system.ruby.dir_cntrl0.directory: Looking up address: 0x2240
      0: system.ruby.dir_cntrl0.directory: Looking up address: 0x2240
      0: system.ruby.dir_cntrl0.directory: Looking up address: 0x2280
      0: system.ruby.dir_cntrl0.directory: Looking up address: 0x2280
      0: system.ruby.dir_cntrl0.directory: Looking up address: 0x22c0
      0: system.ruby.dir_cntrl0.directory: Looking up address: 0x22c0
      0: system.ruby.dir_cntrl0.directory: Looking up address: 0x2300
      0: system.ruby.dir_cntrl0.directory: Looking up address: 0x2300
      0: system.ruby.dir_cntrl0.directory: Looking up address: 0x2340
      0: system.ruby.dir_cntrl0.directory: Looking up address: 0x2340
      0: system.ruby.dir_cntrl0.directory: Looking up address: 0x2380
      0: system.ruby.dir_cntrl0.directory: Looking up address: 0x2380
      0: system.ruby.dir_cntrl0.directory: Looking up address: 0x23c0
      0: system.ruby.dir_cntrl0.directory: Looking up address: 0x23c0
      0: system.ruby.dir_cntrl0.directory: Looking up address: 0x2400
      0: system.ruby.dir_cntrl0.directory: Looking up address: 0x2400
      0: system.ruby.dir_cntrl0.directory: Looking up address: 0x2440
      0: system.ruby.dir_cntrl0.directory: Looking up address: 0x2440
      0: system.ruby.dir_cntrl0.directory: Looking up address: 0x2480
      0: system.ruby.dir_cntrl0.directory: Looking up address: 0x2480
      0: system.ruby.dir_cntrl0.directory: Looking up address: 0x24c0
      0: system.ruby.dir_cntrl0.directory: Looking up address: 0x24c0
      0: system.ruby.dir_cntrl0.directory: Looking up address: 0x2500
      0: system.ruby.dir_cntrl0.directory: Looking up address: 0x2500
      0: system.ruby.dir_cntrl0.directory: Looking up address: 0x2540
      0: system.ruby.dir_cntrl0.directory: Looking up address: 0x2540
      0: system.ruby.dir_cntrl0.directory: Looking up address: 0x2580
      0: system.ruby.dir_cntrl0.directory: Looking up address: 0x2580
      0: system.ruby.dir_cntrl0.directory: Looking up address: 0x25c0
      0: system.ruby.dir_cntrl0.directory: Looking up address: 0x25c0
      0: system.ruby.dir_cntrl0.directory: Looking up address: 0x2600
      0: system.ruby.dir_cntrl0.directory: Looking up address: 0x2600
      0: system.ruby.dir_cntrl0.directory: Looking up address: 0x2640
      0: system.ruby.dir_cntrl0.directory: Looking up address: 0x2640
      0: system.ruby.dir_cntrl0.directory: Looking up address: 0x2680
      0: system.ruby.dir_cntrl0.directory: Looking up address: 0x2680
      0: system.ruby.dir_cntrl0.directory: Looking up address: 0x26c0
      0: system.ruby.dir_cntrl0.directory: Looking up address: 0x26c0
      0: system.ruby.dir_cntrl0.directory: Looking up address: 0x2700
      0: system.ruby.dir_cntrl0.directory: Looking up address: 0x2700
      0: system.ruby.dir_cntrl0.directory: Looking up address: 0x2740
      0: system.ruby.dir_cntrl0.directory: Looking up address: 0x2740
      0: system.ruby.dir_cntrl0.directory: Looking up address: 0x2780
      0: system.ruby.dir_cntrl0.directory: Looking up address: 0x2780
      0: system.ruby.dir_cntrl0.directory: Looking up address: 0x27c0
      0: system.ruby.dir_cntrl0.directory: Looking up address: 0x27c0
      0: system.ruby.dir_cntrl0.directory: Looking up address: 0x2800
      0: system.ruby.dir_cntrl0.directory: Looking up address: 0x2800
      0: system.ruby.dir_cntrl0.directory: Looking up address: 0x2840
      0: system.ruby.dir_cntrl0.directory: Looking up address: 0x2840
      0: system.ruby.dir_cntrl0.directory: Looking up address: 0x2880
      0: system.ruby.dir_cntrl0.directory: Looking up address: 0x2880
      0: system.ruby.dir_cntrl0.directory: Looking up address: 0x28c0
      0: system.ruby.dir_cntrl0.directory: Looking up address: 0x28c0
      0: system.ruby.dir_cntrl0.directory: Looking up address: 0x2900
      0: system.ruby.dir_cntrl0.directory: Looking up address: 0x2900
      0: system.ruby.dir_cntrl0.directory: Looking up address: 0x2940
      0: system.ruby.dir_cntrl0.directory: Looking up address: 0x2940
      0: system.ruby.dir_cntrl0.directory: Looking up address: 0x2980
      0: system.ruby.dir_cntrl0.directory: Looking up address: 0x2980
      0: system.ruby.dir_cntrl0.directory: Looking up address: 0x29c0
      0: system.ruby.dir_cntrl0.directory: Looking up address: 0x29c0
      0: system.ruby.dir_cntrl0.directory: Looking up address: 0x2a00
      0: system.ruby.dir_cntrl0.directory: Looking up address: 0x2a00
      0: system.ruby.dir_cntrl0.directory: Looking up address: 0x2a40
      0: system.ruby.dir_cntrl0.directory: Looking up address: 0x2a40
      0: system.ruby.dir_cntrl0.directory: Looking up address: 0x2a80
      0: system.ruby.dir_cntrl0.directory: Looking up address: 0x2a80
      0: system.ruby.dir_cntrl0.directory: Looking up address: 0x2ac0
      0: system.ruby.dir_cntrl0.directory: Looking up address: 0x2ac0
      0: system.ruby.dir_cntrl0.directory: Looking up address: 0x2b00
      0: system.ruby.dir_cntrl0.directory: Looking up address: 0x2b00
      0: system.ruby.dir_cntrl0.directory: Looking up address: 0x2b40
      0: system.ruby.dir_cntrl0.directory: Looking up address: 0x2b40
      0: system.ruby.dir_cntrl0.directory: Looking up address: 0x2b80
      0: system.ruby.dir_cntrl0.directory: Looking up address: 0x2b80
      0: system.ruby.dir_cntrl0.directory: Looking up address: 0x2bc0
      0: system.ruby.dir_cntrl0.directory: Looking up address: 0x2bc0
      0: system.ruby.dir_cntrl0.directory: Looking up address: 0x2c00
      0: system.ruby.dir_cntrl0.directory: Looking up address: 0x2c00
      0: system.ruby.dir_cntrl0.directory: Looking up address: 0x2c40
      0: system.ruby.dir_cntrl0.directory: Looking up address: 0x2c40
      0: system.ruby.dir_cntrl0.directory: Looking up address: 0x2c80
      0: system.ruby.dir_cntrl0.directory: Looking up address: 0x2c80
      0: system.ruby.dir_cntrl0.directory: Looking up address: 0x2cc0
      0: system.ruby.dir_cntrl0.directory: Looking up address: 0x2cc0
      0: system.ruby.dir_cntrl0.directory: Looking up address: 0x2d00
      0: system.ruby.dir_cntrl0.directory: Looking up address: 0x2d00
      0: system.ruby.dir_cntrl0.directory: Looking up address: 0x2d40
      0: system.ruby.dir_cntrl0.directory: Looking up address: 0x2d40
      0: system.ruby.dir_cntrl0.directory: Looking up address: 0x2d80
      0: system.ruby.dir_cntrl0.directory: Looking up address: 0x2d80
      0: system.ruby.dir_cntrl0.directory: Looking up address: 0x2dc0
      0: system.ruby.dir_cntrl0.directory: Looking up address: 0x2dc0
      0: system.ruby.dir_cntrl0.directory: Looking up address: 0x2e00
      0: system.ruby.dir_cntrl0.directory: Looking up address: 0x2e00
      0: system.ruby.dir_cntrl0.directory: Looking up address: 0x2e40
      0: system.ruby.dir_cntrl0.directory: Looking up address: 0x2e40
      0: system.ruby.dir_cntrl0.directory: Looking up address: 0x2e80
      0: system.ruby.dir_cntrl0.directory: Looking up address: 0x2e80
      0: system.ruby.dir_cntrl0.directory: Looking up address: 0x2ec0
      0: system.ruby.dir_cntrl0.directory: Looking up address: 0x2ec0
      0: system.ruby.dir_cntrl0.directory: Looking up address: 0x2f00
      0: system.ruby.dir_cntrl0.directory: Looking up address: 0x2f00
      0: system.ruby.dir_cntrl0.directory: Looking up address: 0x2f40
      0: system.ruby.dir_cntrl0.directory: Looking up address: 0x2f40
      0: system.ruby.dir_cntrl0.directory: Looking up address: 0x2f80
      0: system.ruby.dir_cntrl0.directory: Looking up address: 0x2f80
      0: system.ruby.dir_cntrl0.directory: Looking up address: 0x2fc0
      0: system.ruby.dir_cntrl0.directory: Looking up address: 0x2fc0
      0: system.ruby.dir_cntrl0.directory: Looking up address: 0x3000
      0: system.ruby.dir_cntrl0.directory: Looking up address: 0x3000
      0: system.ruby.dir_cntrl0.directory: Looking up address: 0x3040
      0: system.ruby.dir_cntrl0.directory: Looking up address: 0x3040
      0: system.ruby.dir_cntrl0.directory: Looking up address: 0x3080
      0: system.ruby.dir_cntrl0.directory: Looking up address: 0x3080
      0: system.ruby.dir_cntrl0.directory: Looking up address: 0x30c0
      0: system.ruby.dir_cntrl0.directory: Looking up address: 0x30c0
      0: system.ruby.dir_cntrl0.directory: Looking up address: 0x3100
      0: system.ruby.dir_cntrl0.directory: Looking up address: 0x3100
      0: system.ruby.dir_cntrl0.directory: Looking up address: 0x3140
      0: system.ruby.dir_cntrl0.directory: Looking up address: 0x3140
      0: system.ruby.dir_cntrl0.directory: Looking up address: 0x3180
      0: system.ruby.dir_cntrl0.directory: Looking up address: 0x3180
      0: system.ruby.dir_cntrl0.directory: Looking up address: 0x31c0
      0: system.ruby.dir_cntrl0.directory: Looking up address: 0x31c0
      0: system.ruby.dir_cntrl0.directory: Looking up address: 0x3200
      0: system.ruby.dir_cntrl0.directory: Looking up address: 0x3200
      0: system.ruby.dir_cntrl0.directory: Looking up address: 0x3240
      0: system.ruby.dir_cntrl0.directory: Looking up address: 0x3240
      0: system.ruby.dir_cntrl0.directory: Looking up address: 0x3280
      0: system.ruby.dir_cntrl0.directory: Looking up address: 0x3280
      0: system.ruby.dir_cntrl0.directory: Looking up address: 0x32c0
      0: system.ruby.dir_cntrl0.directory: Looking up address: 0x32c0
      0: system.ruby.dir_cntrl0.directory: Looking up address: 0x3300
      0: system.ruby.dir_cntrl0.directory: Looking up address: 0x3300
      0: system.ruby.dir_cntrl0.directory: Looking up address: 0x3340
      0: system.ruby.dir_cntrl0.directory: Looking up address: 0x3340
      0: system.ruby.dir_cntrl0.directory: Looking up address: 0x3380
      0: system.ruby.dir_cntrl0.directory: Looking up address: 0x3380
      0: system.ruby.dir_cntrl0.directory: Looking up address: 0x33c0
      0: system.ruby.dir_cntrl0.directory: Looking up address: 0x33c0
      0: system.ruby.dir_cntrl0.directory: Looking up address: 0x3400
      0: system.ruby.dir_cntrl0.directory: Looking up address: 0x3400
      0: system.ruby.dir_cntrl0.directory: Looking up address: 0x3440
      0: system.ruby.dir_cntrl0.directory: Looking up address: 0x3440
      0: system.ruby.dir_cntrl0.directory: Looking up address: 0x3480
      0: system.ruby.dir_cntrl0.directory: Looking up address: 0x3480
      0: system.ruby.dir_cntrl0.directory: Looking up address: 0x34c0
      0: system.ruby.dir_cntrl0.directory: Looking up address: 0x34c0
      0: system.ruby.dir_cntrl0.directory: Looking up address: 0x3500
      0: system.ruby.dir_cntrl0.directory: Looking up address: 0x3500
      0: system.ruby.dir_cntrl0.directory: Looking up address: 0x3540
      0: system.ruby.dir_cntrl0.directory: Looking up address: 0x3540
      0: system.ruby.dir_cntrl0.directory: Looking up address: 0x3580
      0: system.ruby.dir_cntrl0.directory: Looking up address: 0x3580
      0: system.ruby.dir_cntrl0.directory: Looking up address: 0x35c0
      0: system.ruby.dir_cntrl0.directory: Looking up address: 0x35c0
      0: system.ruby.dir_cntrl0.directory: Looking up address: 0x3600
      0: system.ruby.dir_cntrl0.directory: Looking up address: 0x3600
      0: system.ruby.dir_cntrl0.directory: Looking up address: 0x3640
      0: system.ruby.dir_cntrl0.directory: Looking up address: 0x3640
      0: system.ruby.dir_cntrl0.directory: Looking up address: 0x3680
      0: system.ruby.dir_cntrl0.directory: Looking up address: 0x3680
      0: system.ruby.dir_cntrl0.directory: Looking up address: 0x36c0
      0: system.ruby.dir_cntrl0.directory: Looking up address: 0x36c0
      0: system.ruby.dir_cntrl0.directory: Looking up address: 0x3700
      0: system.ruby.dir_cntrl0.directory: Looking up address: 0x3700
      0: system.ruby.dir_cntrl0.directory: Looking up address: 0x3740
      0: system.ruby.dir_cntrl0.directory: Looking up address: 0x3740
      0: system.ruby.dir_cntrl0.directory: Looking up address: 0x3780
      0: system.ruby.dir_cntrl0.directory: Looking up address: 0x3780
      0: system.ruby.dir_cntrl0.directory: Looking up address: 0x37c0
      0: system.ruby.dir_cntrl0.directory: Looking up address: 0x37c0
      0: system.ruby.dir_cntrl0.directory: Looking up address: 0x3800
      0: system.ruby.dir_cntrl0.directory: Looking up address: 0x3800
      0: system.ruby.dir_cntrl0.directory: Looking up address: 0x3840
      0: system.ruby.dir_cntrl0.directory: Looking up address: 0x3840
      0: system.ruby.dir_cntrl0.directory: Looking up address: 0x3880
      0: system.ruby.dir_cntrl0.directory: Looking up address: 0x3880
      0: system.ruby.dir_cntrl0.directory: Looking up address: 0x38c0
      0: system.ruby.dir_cntrl0.directory: Looking up address: 0x38c0
      0: system.ruby.dir_cntrl0.directory: Looking up address: 0x3900
      0: system.ruby.dir_cntrl0.directory: Looking up address: 0x3900
      0: system.ruby.dir_cntrl0.directory: Looking up address: 0x3940
      0: system.ruby.dir_cntrl0.directory: Looking up address: 0x3940
      0: system.ruby.dir_cntrl0.directory: Looking up address: 0x3980
      0: system.ruby.dir_cntrl0.directory: Looking up address: 0x3980
      0: system.ruby.dir_cntrl0.directory: Looking up address: 0x39c0
      0: system.ruby.dir_cntrl0.directory: Looking up address: 0x39c0
      0: system.ruby.dir_cntrl0.directory: Looking up address: 0x3a00
      0: system.ruby.dir_cntrl0.directory: Looking up address: 0x3a00
      0: system.ruby.dir_cntrl0.directory: Looking up address: 0x3a40
      0: system.ruby.dir_cntrl0.directory: Looking up address: 0x3a40
      0: system.ruby.dir_cntrl0.directory: Looking up address: 0x3a80
      0: system.ruby.dir_cntrl0.directory: Looking up address: 0x3a80
      0: system.ruby.dir_cntrl0.directory: Looking up address: 0x3ac0
      0: system.ruby.dir_cntrl0.directory: Looking up address: 0x3ac0
      0: system.ruby.dir_cntrl0.directory: Looking up address: 0x3b00
      0: system.ruby.dir_cntrl0.directory: Looking up address: 0x3b00
      0: system.ruby.dir_cntrl0.directory: Looking up address: 0x3b40
      0: system.ruby.dir_cntrl0.directory: Looking up address: 0x3b40
      0: system.ruby.dir_cntrl0.directory: Looking up address: 0x3b80
      0: system.ruby.dir_cntrl0.directory: Looking up address: 0x3b80
      0: system.ruby.dir_cntrl0.directory: Looking up address: 0x3bc0
      0: system.ruby.dir_cntrl0.directory: Looking up address: 0x3bc0
      0: system.ruby.dir_cntrl0.directory: Looking up address: 0x3c00
      0: system.ruby.dir_cntrl0.directory: Looking up address: 0x3c00
      0: system.ruby.dir_cntrl0.directory: Looking up address: 0x3c40
      0: system.ruby.dir_cntrl0.directory: Looking up address: 0x3c40
      0: system.ruby.dir_cntrl0.directory: Looking up address: 0x3c80
      0: system.ruby.dir_cntrl0.directory: Looking up address: 0x3c80
      0: system.ruby.dir_cntrl0.directory: Looking up address: 0x3cc0
      0: system.ruby.dir_cntrl0.directory: Looking up address: 0x3cc0
      0: system.ruby.dir_cntrl0.directory: Looking up address: 0x3d00
      0: system.ruby.dir_cntrl0.directory: Looking up address: 0x3d00
      0: system.ruby.dir_cntrl0.directory: Looking up address: 0x3d40
      0: system.ruby.dir_cntrl0.directory: Looking up address: 0x3d40
      0: system.ruby.dir_cntrl0.directory: Looking up address: 0x3d80
      0: system.ruby.dir_cntrl0.directory: Looking up address: 0x3d80
      0: system.ruby.dir_cntrl0.directory: Looking up address: 0x3dc0
      0: system.ruby.dir_cntrl0.directory: Looking up address: 0x3dc0
      0: system.ruby.dir_cntrl0.directory: Looking up address: 0x3e00
      0: system.ruby.dir_cntrl0.directory: Looking up address: 0x3e00
      0: system.ruby.dir_cntrl0.directory: Looking up address: 0x3e40
      0: system.ruby.dir_cntrl0.directory: Looking up address: 0x3e40
      0: system.ruby.dir_cntrl0.directory: Looking up address: 0x3e80
      0: system.ruby.dir_cntrl0.directory: Looking up address: 0x3e80
      0: system.ruby.dir_cntrl0.directory: Looking up address: 0x3ec0
      0: system.ruby.dir_cntrl0.directory: Looking up address: 0x3ec0
      0: system.ruby.dir_cntrl0.directory: Looking up address: 0x3f00
      0: system.ruby.dir_cntrl0.directory: Looking up address: 0x3f00
      0: system.ruby.dir_cntrl0.directory: Looking up address: 0x3f40
      0: system.ruby.dir_cntrl0.directory: Looking up address: 0x3f40
      0: system.ruby.dir_cntrl0.directory: Looking up address: 0x3f80
      0: system.ruby.dir_cntrl0.directory: Looking up address: 0x3f80
      0: system.ruby.dir_cntrl0.directory: Looking up address: 0x3fc0
      0: system.ruby.dir_cntrl0.directory: Looking up address: 0x3fc0
      0: system.ruby.dir_cntrl0.directory: Looking up address: 0x4000
      0: system.ruby.dir_cntrl0.directory: Looking up address: 0x4000
      0: system.ruby.dir_cntrl0.directory: Looking up address: 0x4040
      0: system.ruby.dir_cntrl0.directory: Looking up address: 0x4040
      0: system.ruby.dir_cntrl0.directory: Looking up address: 0x4080
      0: system.ruby.dir_cntrl0.directory: Looking up address: 0x4080
      0: system.ruby.dir_cntrl0.directory: Looking up address: 0x40c0
      0: system.ruby.dir_cntrl0.directory: Looking up address: 0x40c0
      0: system.ruby.dir_cntrl0.directory: Looking up address: 0x4100
      0: system.ruby.dir_cntrl0.directory: Looking up address: 0x4100
      0: system.ruby.dir_cntrl0.directory: Looking up address: 0x4140
      0: system.ruby.dir_cntrl0.directory: Looking up address: 0x4140
      0: system.ruby.dir_cntrl0.directory: Looking up address: 0x4180
      0: system.ruby.dir_cntrl0.directory: Looking up address: 0x4180
      0: system.ruby.dir_cntrl0.directory: Looking up address: 0x41c0
      0: system.ruby.dir_cntrl0.directory: Looking up address: 0x41c0
      0: system.ruby.dir_cntrl0.directory: Looking up address: 0x4200
      0: system.ruby.dir_cntrl0.directory: Looking up address: 0x4200
      0: system.ruby.dir_cntrl0.directory: Looking up address: 0x4240
      0: system.ruby.dir_cntrl0.directory: Looking up address: 0x4240
      0: system.ruby.dir_cntrl0.directory: Looking up address: 0x4280
      0: system.ruby.dir_cntrl0.directory: Looking up address: 0x4280
      0: system.ruby.dir_cntrl0.directory: Looking up address: 0x42c0
      0: system.ruby.dir_cntrl0.directory: Looking up address: 0x42c0
      0: system.ruby.dir_cntrl0.directory: Looking up address: 0x4300
      0: system.ruby.dir_cntrl0.directory: Looking up address: 0x4300
      0: system.ruby.dir_cntrl0.directory: Looking up address: 0x4340
      0: system.ruby.dir_cntrl0.directory: Looking up address: 0x4340
      0: system.ruby.dir_cntrl0.directory: Looking up address: 0x4380
      0: system.ruby.dir_cntrl0.directory: Looking up address: 0x4380
      0: system.ruby.dir_cntrl0.directory: Looking up address: 0x43c0
      0: system.ruby.dir_cntrl0.directory: Looking up address: 0x43c0
      0: system.ruby.dir_cntrl0.directory: Looking up address: 0x4400
      0: system.ruby.dir_cntrl0.directory: Looking up address: 0x4400
      0: system.ruby.dir_cntrl0.directory: Looking up address: 0x4440
      0: system.ruby.dir_cntrl0.directory: Looking up address: 0x4440
      0: system.ruby.dir_cntrl0.directory: Looking up address: 0x4480
      0: system.ruby.dir_cntrl0.directory: Looking up address: 0x4480
      0: system.ruby.dir_cntrl0.directory: Looking up address: 0x44c0
      0: system.ruby.dir_cntrl0.directory: Looking up address: 0x44c0
      0: system.ruby.dir_cntrl0.directory: Looking up address: 0x4500
      0: system.ruby.dir_cntrl0.directory: Looking up address: 0x4500
      0: system.ruby.dir_cntrl0.directory: Looking up address: 0x4540
      0: system.ruby.dir_cntrl0.directory: Looking up address: 0x4540
      0: system.ruby.dir_cntrl0.directory: Looking up address: 0x4580
      0: system.ruby.dir_cntrl0.directory: Looking up address: 0x4580
      0: system.ruby.dir_cntrl0.directory: Looking up address: 0x45c0
      0: system.ruby.dir_cntrl0.directory: Looking up address: 0x45c0
      0: system.ruby.dir_cntrl0.directory: Looking up address: 0x4600
      0: system.ruby.dir_cntrl0.directory: Looking up address: 0x4600
      0: system.ruby.dir_cntrl0.directory: Looking up address: 0x4640
      0: system.ruby.dir_cntrl0.directory: Looking up address: 0x4640
      0: system.ruby.dir_cntrl0.directory: Looking up address: 0x4680
      0: system.ruby.dir_cntrl0.directory: Looking up address: 0x4680
      0: system.ruby.dir_cntrl0.directory: Looking up address: 0x46c0
      0: system.ruby.dir_cntrl0.directory: Looking up address: 0x46c0
      0: system.ruby.dir_cntrl0.directory: Looking up address: 0x4700
      0: system.ruby.dir_cntrl0.directory: Looking up address: 0x4700
      0: system.ruby.dir_cntrl0.directory: Looking up address: 0x4740
      0: system.ruby.dir_cntrl0.directory: Looking up address: 0x4740
      0: system.ruby.dir_cntrl0.directory: Looking up address: 0x4780
      0: system.ruby.dir_cntrl0.directory: Looking up address: 0x4780
      0: system.ruby.dir_cntrl0.directory: Looking up address: 0x47c0
      0: system.ruby.dir_cntrl0.directory: Looking up address: 0x47c0
      0: system.ruby.dir_cntrl0.directory: Looking up address: 0x4800
      0: system.ruby.dir_cntrl0.directory: Looking up address: 0x4800
      0: system.ruby.dir_cntrl0.directory: Looking up address: 0x4840
      0: system.ruby.dir_cntrl0.directory: Looking up address: 0x4840
      0: system.ruby.dir_cntrl0.directory: Looking up address: 0x4880
      0: system.ruby.dir_cntrl0.directory: Looking up address: 0x4880
      0: system.ruby.dir_cntrl0.directory: Looking up address: 0x48c0
      0: system.ruby.dir_cntrl0.directory: Looking up address: 0x48c0
      0: system.ruby.dir_cntrl0.directory: Looking up address: 0x4900
      0: system.ruby.dir_cntrl0.directory: Looking up address: 0x4900
      0: system.ruby.dir_cntrl0.directory: Looking up address: 0x4940
      0: system.ruby.dir_cntrl0.directory: Looking up address: 0x4940
      0: system.ruby.dir_cntrl0.directory: Looking up address: 0x4980
      0: system.ruby.dir_cntrl0.directory: Looking up address: 0x4980
      0: system.ruby.dir_cntrl0.directory: Looking up address: 0x49c0
      0: system.ruby.dir_cntrl0.directory: Looking up address: 0x49c0
      0: system.ruby.dir_cntrl0.directory: Looking up address: 0x4a00
      0: system.ruby.dir_cntrl0.directory: Looking up address: 0x4a00
      0: system.ruby.dir_cntrl0.directory: Looking up address: 0x4a40
      0: system.ruby.dir_cntrl0.directory: Looking up address: 0x4a40
      0: system.ruby.dir_cntrl0.directory: Looking up address: 0x4a80
      0: system.ruby.dir_cntrl0.directory: Looking up address: 0x4a80
      0: system.ruby.dir_cntrl0.directory: Looking up address: 0x4ac0
      0: system.ruby.dir_cntrl0.directory: Looking up address: 0x4ac0
      0: system.ruby.dir_cntrl0.directory: Looking up address: 0x4b00
      0: system.ruby.dir_cntrl0.directory: Looking up address: 0x4b00
      0: system.ruby.dir_cntrl0.directory: Looking up address: 0x4b40
      0: system.ruby.dir_cntrl0.directory: Looking up address: 0x4b40
      0: system.ruby.dir_cntrl0.directory: Looking up address: 0x4b80
      0: system.ruby.dir_cntrl0.directory: Looking up address: 0x4b80
      0: system.ruby.dir_cntrl0.directory: Looking up address: 0x4bc0
      0: system.ruby.dir_cntrl0.directory: Looking up address: 0x4bc0
      0: system.ruby.dir_cntrl0.directory: Looking up address: 0x4c00
      0: system.ruby.dir_cntrl0.directory: Looking up address: 0x4c00
      0: system.ruby.dir_cntrl0.directory: Looking up address: 0x4c40
      0: system.ruby.dir_cntrl0.directory: Looking up address: 0x4c40
      0: system.ruby.dir_cntrl0.directory: Looking up address: 0x4c80
      0: system.ruby.dir_cntrl0.directory: Looking up address: 0x4c80
      0: system.ruby.dir_cntrl0.directory: Looking up address: 0x4cc0
      0: system.ruby.dir_cntrl0.directory: Looking up address: 0x4cc0
      0: system.ruby.dir_cntrl0.directory: Looking up address: 0x4d00
      0: system.ruby.dir_cntrl0.directory: Looking up address: 0x4d00
      0: system.ruby.dir_cntrl0.directory: Looking up address: 0x4d40
      0: system.ruby.dir_cntrl0.directory: Looking up address: 0x4d40
      0: system.ruby.dir_cntrl0.directory: Looking up address: 0x4d80
      0: system.ruby.dir_cntrl0.directory: Looking up address: 0x4d80
      0: system.ruby.dir_cntrl0.directory: Looking up address: 0x4dc0
      0: system.ruby.dir_cntrl0.directory: Looking up address: 0x4dc0
      0: system.ruby.dir_cntrl0.directory: Looking up address: 0x4e00
      0: system.ruby.dir_cntrl0.directory: Looking up address: 0x4e00
      0: system.ruby.dir_cntrl0.directory: Looking up address: 0x4e40
      0: system.ruby.dir_cntrl0.directory: Looking up address: 0x4e40
      0: system.ruby.dir_cntrl0.directory: Looking up address: 0x4e80
      0: system.ruby.dir_cntrl0.directory: Looking up address: 0x4e80
      0: system.ruby.dir_cntrl0.directory: Looking up address: 0x4ec0
      0: system.ruby.dir_cntrl0.directory: Looking up address: 0x4ec0
      0: system.ruby.dir_cntrl0.directory: Looking up address: 0x4f00
      0: system.ruby.dir_cntrl0.directory: Looking up address: 0x4f00
      0: system.ruby.dir_cntrl0.directory: Looking up address: 0x4f40
      0: system.ruby.dir_cntrl0.directory: Looking up address: 0x4f40
      0: system.ruby.dir_cntrl0.directory: Looking up address: 0x4f80
      0: system.ruby.dir_cntrl0.directory: Looking up address: 0x4f80
      0: system.ruby.dir_cntrl0.directory: Looking up address: 0x4fc0
      0: system.ruby.dir_cntrl0.directory: Looking up address: 0x4fc0
      0: system.ruby.dir_cntrl0.directory: Looking up address: 0x5000
      0: system.ruby.dir_cntrl0.directory: Looking up address: 0x5000
      0: system.ruby.dir_cntrl0.directory: Looking up address: 0x5040
      0: system.ruby.dir_cntrl0.directory: Looking up address: 0x5040
      0: system.ruby.dir_cntrl0.directory: Looking up address: 0x5080
      0: system.ruby.dir_cntrl0.directory: Looking up address: 0x5080
      0: system.ruby.dir_cntrl0.directory: Looking up address: 0x50c0
      0: system.ruby.dir_cntrl0.directory: Looking up address: 0x50c0
      0: system.ruby.dir_cntrl0.directory: Looking up address: 0x5100
      0: system.ruby.dir_cntrl0.directory: Looking up address: 0x5100
      0: system.ruby.dir_cntrl0.directory: Looking up address: 0x5140
      0: system.ruby.dir_cntrl0.directory: Looking up address: 0x5140
      0: system.ruby.dir_cntrl0.directory: Looking up address: 0x5180
      0: system.ruby.dir_cntrl0.directory: Looking up address: 0x5180
      0: system.ruby.dir_cntrl0.directory: Looking up address: 0x51c0
      0: system.ruby.dir_cntrl0.directory: Looking up address: 0x51c0
      0: system.ruby.dir_cntrl0.directory: Looking up address: 0x5200
      0: system.ruby.dir_cntrl0.directory: Looking up address: 0x5200
      0: system.ruby.dir_cntrl0.directory: Looking up address: 0x5240
      0: system.ruby.dir_cntrl0.directory: Looking up address: 0x5240
      0: system.ruby.dir_cntrl0.directory: Looking up address: 0x5280
      0: system.ruby.dir_cntrl0.directory: Looking up address: 0x5280
      0: system.ruby.dir_cntrl0.directory: Looking up address: 0x52c0
      0: system.ruby.dir_cntrl0.directory: Looking up address: 0x52c0
      0: system.ruby.dir_cntrl0.directory: Looking up address: 0x5300
      0: system.ruby.dir_cntrl0.directory: Looking up address: 0x5300
      0: system.ruby.dir_cntrl0.directory: Looking up address: 0x5340
      0: system.ruby.dir_cntrl0.directory: Looking up address: 0x5340
      0: system.ruby.dir_cntrl0.directory: Looking up address: 0x5380
      0: system.ruby.dir_cntrl0.directory: Looking up address: 0x5380
      0: system.ruby.dir_cntrl0.directory: Looking up address: 0x53c0
      0: system.ruby.dir_cntrl0.directory: Looking up address: 0x53c0
      0: system.ruby.dir_cntrl0.directory: Looking up address: 0x5400
      0: system.ruby.dir_cntrl0.directory: Looking up address: 0x5400
      0: system.ruby.dir_cntrl0.directory: Looking up address: 0x5440
      0: system.ruby.dir_cntrl0.directory: Looking up address: 0x5440
      0: system.ruby.dir_cntrl0.directory: Looking up address: 0x5480
      0: system.ruby.dir_cntrl0.directory: Looking up address: 0x5480
      0: system.ruby.dir_cntrl0.directory: Looking up address: 0x54c0
      0: system.ruby.dir_cntrl0.directory: Looking up address: 0x54c0
      0: system.ruby.dir_cntrl0.directory: Looking up address: 0x5500
      0: system.ruby.dir_cntrl0.directory: Looking up address: 0x5500
      0: system.ruby.dir_cntrl0.directory: Looking up address: 0x5540
      0: system.ruby.dir_cntrl0.directory: Looking up address: 0x5540
      0: system.ruby.dir_cntrl0.directory: Looking up address: 0x5580
      0: system.ruby.dir_cntrl0.directory: Looking up address: 0x5580
      0: system.ruby.dir_cntrl0.directory: Looking up address: 0x55c0
      0: system.ruby.dir_cntrl0.directory: Looking up address: 0x55c0
      0: system.ruby.dir_cntrl0.directory: Looking up address: 0x5600
      0: system.ruby.dir_cntrl0.directory: Looking up address: 0x5600
      0: system.ruby.dir_cntrl0.directory: Looking up address: 0x5640
      0: system.ruby.dir_cntrl0.directory: Looking up address: 0x5640
      0: system.ruby.dir_cntrl0.directory: Looking up address: 0x5680
      0: system.ruby.dir_cntrl0.directory: Looking up address: 0x5680
      0: system.ruby.dir_cntrl0.directory: Looking up address: 0x56c0
      0: system.ruby.dir_cntrl0.directory: Looking up address: 0x56c0
      0: system.ruby.dir_cntrl0.directory: Looking up address: 0x5700
      0: system.ruby.dir_cntrl0.directory: Looking up address: 0x5700
      0: system.ruby.dir_cntrl0.directory: Looking up address: 0x5740
      0: system.ruby.dir_cntrl0.directory: Looking up address: 0x5740
      0: system.ruby.dir_cntrl0.directory: Looking up address: 0x5780
      0: system.ruby.dir_cntrl0.directory: Looking up address: 0x5780
      0: system.ruby.dir_cntrl0.directory: Looking up address: 0x57c0
      0: system.ruby.dir_cntrl0.directory: Looking up address: 0x57c0
      0: system.ruby.dir_cntrl0.directory: Looking up address: 0x5800
      0: system.ruby.dir_cntrl0.directory: Looking up address: 0x5800
      0: system.ruby.dir_cntrl0.directory: Looking up address: 0x5840
      0: system.ruby.dir_cntrl0.directory: Looking up address: 0x5840
      0: system.ruby.dir_cntrl0.directory: Looking up address: 0x5880
      0: system.ruby.dir_cntrl0.directory: Looking up address: 0x5880
      0: system.ruby.dir_cntrl0.directory: Looking up address: 0x58c0
      0: system.ruby.dir_cntrl0.directory: Looking up address: 0x58c0
      0: system.ruby.dir_cntrl0.directory: Looking up address: 0x5900
      0: system.ruby.dir_cntrl0.directory: Looking up address: 0x5900
      0: system.ruby.dir_cntrl0.directory: Looking up address: 0x5940
      0: system.ruby.dir_cntrl0.directory: Looking up address: 0x5940
      0: system.ruby.dir_cntrl0.directory: Looking up address: 0x5980
      0: system.ruby.dir_cntrl0.directory: Looking up address: 0x5980
      0: system.ruby.dir_cntrl0.directory: Looking up address: 0x59c0
      0: system.ruby.dir_cntrl0.directory: Looking up address: 0x59c0
      0: system.ruby.dir_cntrl0.directory: Looking up address: 0x5a00
      0: system.ruby.dir_cntrl0.directory: Looking up address: 0x5a00
      0: system.ruby.dir_cntrl0.directory: Looking up address: 0x5a40
      0: system.ruby.dir_cntrl0.directory: Looking up address: 0x5a40
      0: system.ruby.dir_cntrl0.directory: Looking up address: 0x5a80
      0: system.ruby.dir_cntrl0.directory: Looking up address: 0x5a80
      0: system.ruby.dir_cntrl0.directory: Looking up address: 0x5ac0
      0: system.ruby.dir_cntrl0.directory: Looking up address: 0x5ac0
      0: system.ruby.dir_cntrl0.directory: Looking up address: 0x5b00
      0: system.ruby.dir_cntrl0.directory: Looking up address: 0x5b00
      0: system.ruby.dir_cntrl0.directory: Looking up address: 0x5b40
      0: system.ruby.dir_cntrl0.directory: Looking up address: 0x5b40
      0: system.ruby.dir_cntrl0.directory: Looking up address: 0x5b80
      0: system.ruby.dir_cntrl0.directory: Looking up address: 0x5b80
      0: system.ruby.dir_cntrl0.directory: Looking up address: 0x5bc0
      0: system.ruby.dir_cntrl0.directory: Looking up address: 0x5bc0
      0: system.ruby.dir_cntrl0.directory: Looking up address: 0x5c00
      0: system.ruby.dir_cntrl0.directory: Looking up address: 0x5c00
      0: system.ruby.dir_cntrl0.directory: Looking up address: 0x5c40
      0: system.ruby.dir_cntrl0.directory: Looking up address: 0x5c40
      0: system.ruby.dir_cntrl0.directory: Looking up address: 0x5c80
      0: system.ruby.dir_cntrl0.directory: Looking up address: 0x5c80
      0: system.ruby.dir_cntrl0.directory: Looking up address: 0x5cc0
      0: system.ruby.dir_cntrl0.directory: Looking up address: 0x5cc0
      0: system.ruby.dir_cntrl0.directory: Looking up address: 0x5d00
      0: system.ruby.dir_cntrl0.directory: Looking up address: 0x5d00
      0: system.ruby.dir_cntrl0.directory: Looking up address: 0x5d40
      0: system.ruby.dir_cntrl0.directory: Looking up address: 0x5d40
      0: system.ruby.dir_cntrl0.directory: Looking up address: 0x5d80
      0: system.ruby.dir_cntrl0.directory: Looking up address: 0x5d80
      0: system.ruby.dir_cntrl0.directory: Looking up address: 0x5dc0
      0: system.ruby.dir_cntrl0.directory: Looking up address: 0x5dc0
      0: system.ruby.dir_cntrl0.directory: Looking up address: 0x5e00
      0: system.ruby.dir_cntrl0.directory: Looking up address: 0x5e00
      0: system.ruby.dir_cntrl0.directory: Looking up address: 0x5e40
      0: system.ruby.dir_cntrl0.directory: Looking up address: 0x5e40
      0: system.ruby.dir_cntrl0.directory: Looking up address: 0x5e80
      0: system.ruby.dir_cntrl0.directory: Looking up address: 0x5e80
      0: system.ruby.dir_cntrl0.directory: Looking up address: 0x5ec0
      0: system.ruby.dir_cntrl0.directory: Looking up address: 0x5ec0
      0: system.ruby.dir_cntrl0.directory: Looking up address: 0x5f00
      0: system.ruby.dir_cntrl0.directory: Looking up address: 0x5f00
      0: system.ruby.dir_cntrl0.directory: Looking up address: 0x5f40
      0: system.ruby.dir_cntrl0.directory: Looking up address: 0x5f40
      0: system.ruby.dir_cntrl0.directory: Looking up address: 0x5f80
      0: system.ruby.dir_cntrl0.directory: Looking up address: 0x5f80
      0: system.ruby.dir_cntrl0.directory: Looking up address: 0x5fc0
      0: system.ruby.dir_cntrl0.directory: Looking up address: 0x5fc0
      0: system.ruby.dir_cntrl0.directory: Looking up address: 0x6000
      0: system.ruby.dir_cntrl0.directory: Looking up address: 0x6000
      0: system.ruby.dir_cntrl0.directory: Looking up address: 0x6040
      0: system.ruby.dir_cntrl0.directory: Looking up address: 0x6040
      0: system.ruby.dir_cntrl0.directory: Looking up address: 0x6080
      0: system.ruby.dir_cntrl0.directory: Looking up address: 0x6080
      0: system.ruby.dir_cntrl0.directory: Looking up address: 0x60c0
      0: system.ruby.dir_cntrl0.directory: Looking up address: 0x60c0
      0: system.ruby.dir_cntrl0.directory: Looking up address: 0x6100
      0: system.ruby.dir_cntrl0.directory: Looking up address: 0x6100
      0: system.ruby.dir_cntrl0.directory: Looking up address: 0x6140
      0: system.ruby.dir_cntrl0.directory: Looking up address: 0x6140
      0: system.ruby.dir_cntrl0.directory: Looking up address: 0x6180
      0: system.ruby.dir_cntrl0.directory: Looking up address: 0x6180
      0: system.ruby.dir_cntrl0.directory: Looking up address: 0x61c0
      0: system.ruby.dir_cntrl0.directory: Looking up address: 0x61c0
      0: system.ruby.dir_cntrl0.directory: Looking up address: 0x6200
      0: system.ruby.dir_cntrl0.directory: Looking up address: 0x6200
      0: system.ruby.dir_cntrl0.directory: Looking up address: 0x6240
      0: system.ruby.dir_cntrl0.directory: Looking up address: 0x6240
      0: system.ruby.dir_cntrl0.directory: Looking up address: 0x6280
      0: system.ruby.dir_cntrl0.directory: Looking up address: 0x6280
      0: system.ruby.dir_cntrl0.directory: Looking up address: 0x62c0
      0: system.ruby.dir_cntrl0.directory: Looking up address: 0x62c0
      0: system.ruby.dir_cntrl0.directory: Looking up address: 0x6300
      0: system.ruby.dir_cntrl0.directory: Looking up address: 0x6300
      0: system.ruby.dir_cntrl0.directory: Looking up address: 0x6340
      0: system.ruby.dir_cntrl0.directory: Looking up address: 0x6340
      0: system.ruby.dir_cntrl0.directory: Looking up address: 0x6380
      0: system.ruby.dir_cntrl0.directory: Looking up address: 0x6380
      0: system.ruby.dir_cntrl0.directory: Looking up address: 0x63c0
      0: system.ruby.dir_cntrl0.directory: Looking up address: 0x63c0
      0: system.ruby.dir_cntrl0.directory: Looking up address: 0x6400
      0: system.ruby.dir_cntrl0.directory: Looking up address: 0x6400
      0: system.ruby.dir_cntrl0.directory: Looking up address: 0x6440
      0: system.ruby.dir_cntrl0.directory: Looking up address: 0x6440
      0: system.ruby.dir_cntrl0.directory: Looking up address: 0x6480
      0: system.ruby.dir_cntrl0.directory: Looking up address: 0x6480
      0: system.ruby.dir_cntrl0.directory: Looking up address: 0x64c0
      0: system.ruby.dir_cntrl0.directory: Looking up address: 0x64c0
      0: system.ruby.dir_cntrl0.directory: Looking up address: 0x6500
      0: system.ruby.dir_cntrl0.directory: Looking up address: 0x6500
      0: system.ruby.dir_cntrl0.directory: Looking up address: 0x6540
      0: system.ruby.dir_cntrl0.directory: Looking up address: 0x6540
      0: system.ruby.dir_cntrl0.directory: Looking up address: 0x6580
      0: system.ruby.dir_cntrl0.directory: Looking up address: 0x6580
      0: system.ruby.dir_cntrl0.directory: Looking up address: 0x65c0
      0: system.ruby.dir_cntrl0.directory: Looking up address: 0x65c0
      0: system.ruby.dir_cntrl0.directory: Looking up address: 0x6600
      0: system.ruby.dir_cntrl0.directory: Looking up address: 0x6600
      0: system.ruby.dir_cntrl0.directory: Looking up address: 0x6640
      0: system.ruby.dir_cntrl0.directory: Looking up address: 0x6640
      0: system.ruby.dir_cntrl0.directory: Looking up address: 0x6680
      0: system.ruby.dir_cntrl0.directory: Looking up address: 0x6680
      0: system.ruby.dir_cntrl0.directory: Looking up address: 0x66c0
      0: system.ruby.dir_cntrl0.directory: Looking up address: 0x66c0
      0: system.ruby.dir_cntrl0.directory: Looking up address: 0x6700
      0: system.ruby.dir_cntrl0.directory: Looking up address: 0x6700
      0: system.ruby.dir_cntrl0.directory: Looking up address: 0x6740
      0: system.ruby.dir_cntrl0.directory: Looking up address: 0x6740
      0: system.ruby.dir_cntrl0.directory: Looking up address: 0x6780
      0: system.ruby.dir_cntrl0.directory: Looking up address: 0x6780
      0: system.ruby.dir_cntrl0.directory: Looking up address: 0x67c0
      0: system.ruby.dir_cntrl0.directory: Looking up address: 0x67c0
      0: system.ruby.dir_cntrl0.directory: Looking up address: 0x6800
      0: system.ruby.dir_cntrl0.directory: Looking up address: 0x6800
      0: system.ruby.dir_cntrl0.directory: Looking up address: 0x6840
      0: system.ruby.dir_cntrl0.directory: Looking up address: 0x6840
      0: system.ruby.dir_cntrl0.directory: Looking up address: 0x6880
      0: system.ruby.dir_cntrl0.directory: Looking up address: 0x6880
      0: system.ruby.dir_cntrl0.directory: Looking up address: 0x68c0
      0: system.ruby.dir_cntrl0.directory: Looking up address: 0x68c0
      0: system.ruby.dir_cntrl0.directory: Looking up address: 0x6900
      0: system.ruby.dir_cntrl0.directory: Looking up address: 0x6900
      0: system.ruby.dir_cntrl0.directory: Looking up address: 0x6940
      0: system.ruby.dir_cntrl0.directory: Looking up address: 0x6940
      0: system.ruby.dir_cntrl0.directory: Looking up address: 0x6980
      0: system.ruby.dir_cntrl0.directory: Looking up address: 0x6980
      0: system.ruby.dir_cntrl0.directory: Looking up address: 0x69c0
      0: system.ruby.dir_cntrl0.directory: Looking up address: 0x69c0
      0: system.ruby.dir_cntrl0.directory: Looking up address: 0x6a00
      0: system.ruby.dir_cntrl0.directory: Looking up address: 0x6a00
      0: system.ruby.dir_cntrl0.directory: Looking up address: 0x6a40
      0: system.ruby.dir_cntrl0.directory: Looking up address: 0x6a40
      0: system.ruby.dir_cntrl0.directory: Looking up address: 0x6a80
      0: system.ruby.dir_cntrl0.directory: Looking up address: 0x6a80
      0: system.ruby.dir_cntrl0.directory: Looking up address: 0x6ac0
      0: system.ruby.dir_cntrl0.directory: Looking up address: 0x6ac0
      0: system.ruby.dir_cntrl0.directory: Looking up address: 0x6b00
      0: system.ruby.dir_cntrl0.directory: Looking up address: 0x6b00
      0: system.ruby.dir_cntrl0.directory: Looking up address: 0x6b40
      0: system.ruby.dir_cntrl0.directory: Looking up address: 0x6b40
      0: system.ruby.dir_cntrl0.directory: Looking up address: 0x6b80
      0: system.ruby.dir_cntrl0.directory: Looking up address: 0x6b80
      0: system.ruby.dir_cntrl0.directory: Looking up address: 0x6bc0
      0: system.ruby.dir_cntrl0.directory: Looking up address: 0x6bc0
      0: system.ruby.dir_cntrl0.directory: Looking up address: 0x6c00
      0: system.ruby.dir_cntrl0.directory: Looking up address: 0x6c00
      0: system.ruby.dir_cntrl0.directory: Looking up address: 0x6c40
      0: system.ruby.dir_cntrl0.directory: Looking up address: 0x6c40
      0: system.ruby.dir_cntrl0.directory: Looking up address: 0x6c80
      0: system.ruby.dir_cntrl0.directory: Looking up address: 0x6c80
      0: system.ruby.dir_cntrl0.directory: Looking up address: 0x6cc0
      0: system.ruby.dir_cntrl0.directory: Looking up address: 0x6cc0
      0: system.ruby.dir_cntrl0.directory: Looking up address: 0x6d00
      0: system.ruby.dir_cntrl0.directory: Looking up address: 0x6d00
      0: system.ruby.dir_cntrl0.directory: Looking up address: 0x6d40
      0: system.ruby.dir_cntrl0.directory: Looking up address: 0x6d40
      0: system.ruby.dir_cntrl0.directory: Looking up address: 0x6d80
      0: system.ruby.dir_cntrl0.directory: Looking up address: 0x6d80
      0: system.ruby.dir_cntrl0.directory: Looking up address: 0x6dc0
      0: system.ruby.dir_cntrl0.directory: Looking up address: 0x6dc0
      0: system.ruby.dir_cntrl0.directory: Looking up address: 0x6e00
      0: system.ruby.dir_cntrl0.directory: Looking up address: 0x6e00
      0: system.ruby.dir_cntrl0.directory: Looking up address: 0x6e40
      0: system.ruby.dir_cntrl0.directory: Looking up address: 0x6e40
      0: system.ruby.dir_cntrl0.directory: Looking up address: 0x6e80
      0: system.ruby.dir_cntrl0.directory: Looking up address: 0x6e80
      0: system.ruby.dir_cntrl0.directory: Looking up address: 0x6ec0
      0: system.ruby.dir_cntrl0.directory: Looking up address: 0x6ec0
      0: system.ruby.dir_cntrl0.directory: Looking up address: 0x6f00
      0: system.ruby.dir_cntrl0.directory: Looking up address: 0x6f00
      0: system.ruby.dir_cntrl0.directory: Looking up address: 0x6f40
      0: system.ruby.dir_cntrl0.directory: Looking up address: 0x6f40
      0: system.ruby.dir_cntrl0.directory: Looking up address: 0x6f80
      0: system.ruby.dir_cntrl0.directory: Looking up address: 0x6f80
      0: system.ruby.dir_cntrl0.directory: Looking up address: 0x6fc0
      0: system.ruby.dir_cntrl0.directory: Looking up address: 0x6fc0
      0: system.ruby.dir_cntrl0.directory: Looking up address: 0x7000
      0: system.ruby.dir_cntrl0.directory: Looking up address: 0x7000
      0: system.ruby.dir_cntrl0.directory: Looking up address: 0x7040
      0: system.ruby.dir_cntrl0.directory: Looking up address: 0x7040
      0: system.ruby.dir_cntrl0.directory: Looking up address: 0x7080
      0: system.ruby.dir_cntrl0.directory: Looking up address: 0x7080
      0: system.ruby.dir_cntrl0.directory: Looking up address: 0x70c0
      0: system.ruby.dir_cntrl0.directory: Looking up address: 0x70c0
      0: system.ruby.dir_cntrl0.directory: Looking up address: 0x7100
      0: system.ruby.dir_cntrl0.directory: Looking up address: 0x7100
      0: system.ruby.dir_cntrl0.directory: Looking up address: 0x7140
      0: system.ruby.dir_cntrl0.directory: Looking up address: 0x7140
      0: system.ruby.dir_cntrl0.directory: Looking up address: 0x7180
      0: system.ruby.dir_cntrl0.directory: Looking up address: 0x7180
      0: system.ruby.dir_cntrl0.directory: Looking up address: 0x71c0
      0: system.ruby.dir_cntrl0.directory: Looking up address: 0x71c0
      0: system.ruby.dir_cntrl0.directory: Looking up address: 0x7200
      0: system.ruby.dir_cntrl0.directory: Looking up address: 0x7200
      0: system.ruby.dir_cntrl0.directory: Looking up address: 0x7240
      0: system.ruby.dir_cntrl0.directory: Looking up address: 0x7240
      0: system.ruby.dir_cntrl0.directory: Looking up address: 0x7280
      0: system.ruby.dir_cntrl0.directory: Looking up address: 0x7280
      0: system.ruby.dir_cntrl0.directory: Looking up address: 0x72c0
      0: system.ruby.dir_cntrl0.directory: Looking up address: 0x72c0
      0: system.ruby.dir_cntrl0.directory: Looking up address: 0x7300
      0: system.ruby.dir_cntrl0.directory: Looking up address: 0x7300
      0: system.ruby.dir_cntrl0.directory: Looking up address: 0x7340
      0: system.ruby.dir_cntrl0.directory: Looking up address: 0x7340
      0: system.ruby.dir_cntrl0.directory: Looking up address: 0x7380
      0: system.ruby.dir_cntrl0.directory: Looking up address: 0x7380
      0: system.ruby.dir_cntrl0.directory: Looking up address: 0x73c0
      0: system.ruby.dir_cntrl0.directory: Looking up address: 0x73c0
      0: system.ruby.dir_cntrl0.directory: Looking up address: 0x7400
      0: system.ruby.dir_cntrl0.directory: Looking up address: 0x7400
      0: system.ruby.dir_cntrl0.directory: Looking up address: 0x7440
      0: system.ruby.dir_cntrl0.directory: Looking up address: 0x7440
      0: system.ruby.dir_cntrl0.directory: Looking up address: 0x7480
      0: system.ruby.dir_cntrl0.directory: Looking up address: 0x7480
      0: system.ruby.dir_cntrl0.directory: Looking up address: 0x74c0
      0: system.ruby.dir_cntrl0.directory: Looking up address: 0x74c0
      0: system.ruby.dir_cntrl0.directory: Looking up address: 0x7500
      0: system.ruby.dir_cntrl0.directory: Looking up address: 0x7500
      0: system.ruby.dir_cntrl0.directory: Looking up address: 0x7540
      0: system.ruby.dir_cntrl0.directory: Looking up address: 0x7540
      0: system.ruby.dir_cntrl0.directory: Looking up address: 0x7580
      0: system.ruby.dir_cntrl0.directory: Looking up address: 0x7580
      0: system.ruby.dir_cntrl0.directory: Looking up address: 0x75c0
      0: system.ruby.dir_cntrl0.directory: Looking up address: 0x75c0
      0: system.ruby.dir_cntrl0.directory: Looking up address: 0x7600
      0: system.ruby.dir_cntrl0.directory: Looking up address: 0x7600
      0: system.ruby.dir_cntrl0.directory: Looking up address: 0x7640
      0: system.ruby.dir_cntrl0.directory: Looking up address: 0x7640
      0: system.ruby.dir_cntrl0.directory: Looking up address: 0x7680
      0: system.ruby.dir_cntrl0.directory: Looking up address: 0x7680
      0: system.ruby.dir_cntrl0.directory: Looking up address: 0x76c0
      0: system.ruby.dir_cntrl0.directory: Looking up address: 0x76c0
      0: system.ruby.dir_cntrl0.directory: Looking up address: 0x7700
      0: system.ruby.dir_cntrl0.directory: Looking up address: 0x7700
      0: system.ruby.dir_cntrl0.directory: Looking up address: 0x7740
      0: system.ruby.dir_cntrl0.directory: Looking up address: 0x7740
      0: system.ruby.dir_cntrl0.directory: Looking up address: 0x7780
      0: system.ruby.dir_cntrl0.directory: Looking up address: 0x7780
      0: system.ruby.dir_cntrl0.directory: Looking up address: 0x77c0
      0: system.ruby.dir_cntrl0.directory: Looking up address: 0x77c0
      0: system.ruby.dir_cntrl0.directory: Looking up address: 0x7800
      0: system.ruby.dir_cntrl0.directory: Looking up address: 0x7800
      0: system.ruby.dir_cntrl0.directory: Looking up address: 0x7840
      0: system.ruby.dir_cntrl0.directory: Looking up address: 0x7840
      0: system.ruby.dir_cntrl0.directory: Looking up address: 0x7880
      0: system.ruby.dir_cntrl0.directory: Looking up address: 0x7880
      0: system.ruby.dir_cntrl0.directory: Looking up address: 0x78c0
      0: system.ruby.dir_cntrl0.directory: Looking up address: 0x78c0
      0: system.ruby.dir_cntrl0.directory: Looking up address: 0x7900
      0: system.ruby.dir_cntrl0.directory: Looking up address: 0x7900
      0: system.ruby.dir_cntrl0.directory: Looking up address: 0x7940
      0: system.ruby.dir_cntrl0.directory: Looking up address: 0x7940
      0: system.ruby.dir_cntrl0.directory: Looking up address: 0x7980
      0: system.ruby.dir_cntrl0.directory: Looking up address: 0x7980
      0: system.ruby.dir_cntrl0.directory: Looking up address: 0x79c0
      0: system.ruby.dir_cntrl0.directory: Looking up address: 0x79c0
      0: system.ruby.dir_cntrl0.directory: Looking up address: 0x7a00
      0: system.ruby.dir_cntrl0.directory: Looking up address: 0x7a00
      0: system.ruby.dir_cntrl0.directory: Looking up address: 0x7a40
      0: system.ruby.dir_cntrl0.directory: Looking up address: 0x7a40
      0: system.ruby.dir_cntrl0.directory: Looking up address: 0x7a80
      0: system.ruby.dir_cntrl0.directory: Looking up address: 0x7a80
      0: system.ruby.dir_cntrl0.directory: Looking up address: 0x7ac0
      0: system.ruby.dir_cntrl0.directory: Looking up address: 0x7ac0
      0: system.ruby.dir_cntrl0.directory: Looking up address: 0x7b00
      0: system.ruby.dir_cntrl0.directory: Looking up address: 0x7b00
      0: system.ruby.dir_cntrl0.directory: Looking up address: 0x7b40
      0: system.ruby.dir_cntrl0.directory: Looking up address: 0x7b40
      0: system.ruby.dir_cntrl0.directory: Looking up address: 0x7b80
      0: system.ruby.dir_cntrl0.directory: Looking up address: 0x7b80
      0: system.ruby.dir_cntrl0.directory: Looking up address: 0x7bc0
      0: system.ruby.dir_cntrl0.directory: Looking up address: 0x7bc0
      0: system.ruby.dir_cntrl0.directory: Looking up address: 0x7c00
      0: system.ruby.dir_cntrl0.directory: Looking up address: 0x7c00
      0: system.ruby.dir_cntrl0.directory: Looking up address: 0x7c40
      0: system.ruby.dir_cntrl0.directory: Looking up address: 0x7c40
      0: system.ruby.dir_cntrl0.directory: Looking up address: 0x7c80
      0: system.ruby.dir_cntrl0.directory: Looking up address: 0x7c80
      0: system.ruby.dir_cntrl0.directory: Looking up address: 0x7cc0
      0: system.ruby.dir_cntrl0.directory: Looking up address: 0x7cc0
      0: system.ruby.dir_cntrl0.directory: Looking up address: 0x7d00
      0: system.ruby.dir_cntrl0.directory: Looking up address: 0x7d00
      0: system.ruby.dir_cntrl0.directory: Looking up address: 0x7d40
      0: system.ruby.dir_cntrl0.directory: Looking up address: 0x7d40
      0: system.ruby.dir_cntrl0.directory: Looking up address: 0x7d80
      0: system.ruby.dir_cntrl0.directory: Looking up address: 0x7d80
      0: system.ruby.dir_cntrl0.directory: Looking up address: 0x7dc0
      0: system.ruby.dir_cntrl0.directory: Looking up address: 0x7dc0
      0: system.ruby.dir_cntrl0.directory: Looking up address: 0x7e00
      0: system.ruby.dir_cntrl0.directory: Looking up address: 0x7e00
      0: system.ruby.dir_cntrl0.directory: Looking up address: 0x7e40
      0: system.ruby.dir_cntrl0.directory: Looking up address: 0x7e40
      0: system.ruby.dir_cntrl0.directory: Looking up address: 0x7e80
      0: system.ruby.dir_cntrl0.directory: Looking up address: 0x7e80
      0: system.ruby.dir_cntrl0.directory: Looking up address: 0x7ec0
      0: system.ruby.dir_cntrl0.directory: Looking up address: 0x7ec0
      0: system.ruby.dir_cntrl0.directory: Looking up address: 0x7f00
      0: system.ruby.dir_cntrl0.directory: Looking up address: 0x7f00
      0: system.ruby.dir_cntrl0.directory: Looking up address: 0x7f40
      0: system.ruby.dir_cntrl0.directory: Looking up address: 0x7f40
      0: system.ruby.dir_cntrl0.directory: Looking up address: 0x7f80
      0: system.ruby.dir_cntrl0.directory: Looking up address: 0x7f80
      0: system.ruby.dir_cntrl0.directory: Looking up address: 0x7fc0
      0: system.ruby.dir_cntrl0.directory: Looking up address: 0x7fc0
      0: system.ruby.dir_cntrl0.directory: Looking up address: 0x8000
      0: system.ruby.dir_cntrl0.directory: Looking up address: 0x8000
      0: system.ruby.dir_cntrl0.directory: Looking up address: 0x8040
      0: system.ruby.dir_cntrl0.directory: Looking up address: 0x8040
      0: system.ruby.dir_cntrl0.directory: Looking up address: 0x8080
      0: system.ruby.dir_cntrl0.directory: Looking up address: 0x8080
      0: system.ruby.dir_cntrl0.directory: Looking up address: 0x80c0
      0: system.ruby.dir_cntrl0.directory: Looking up address: 0x80c0
      0: system.ruby.dir_cntrl0.directory: Looking up address: 0x8100
      0: system.ruby.dir_cntrl0.directory: Looking up address: 0x8100
      0: system.ruby.dir_cntrl0.directory: Looking up address: 0x8140
      0: system.ruby.dir_cntrl0.directory: Looking up address: 0x8140
      0: system.ruby.dir_cntrl0.directory: Looking up address: 0x8180
      0: system.ruby.dir_cntrl0.directory: Looking up address: 0x8180
      0: system.ruby.dir_cntrl0.directory: Looking up address: 0x81c0
      0: system.ruby.dir_cntrl0.directory: Looking up address: 0x81c0
      0: system.ruby.dir_cntrl0.directory: Looking up address: 0x8200
      0: system.ruby.dir_cntrl0.directory: Looking up address: 0x8200
      0: system.ruby.dir_cntrl0.directory: Looking up address: 0x8240
      0: system.ruby.dir_cntrl0.directory: Looking up address: 0x8240
      0: system.ruby.dir_cntrl0.directory: Looking up address: 0x8280
      0: system.ruby.dir_cntrl0.directory: Looking up address: 0x8280
      0: system.ruby.dir_cntrl0.directory: Looking up address: 0x82c0
      0: system.ruby.dir_cntrl0.directory: Looking up address: 0x82c0
      0: system.ruby.dir_cntrl0.directory: Looking up address: 0x8300
      0: system.ruby.dir_cntrl0.directory: Looking up address: 0x8300
      0: system.ruby.dir_cntrl0.directory: Looking up address: 0x8340
      0: system.ruby.dir_cntrl0.directory: Looking up address: 0x8340
      0: system.ruby.dir_cntrl0.directory: Looking up address: 0x8380
      0: system.ruby.dir_cntrl0.directory: Looking up address: 0x8380
      0: system.ruby.dir_cntrl0.directory: Looking up address: 0x83c0
      0: system.ruby.dir_cntrl0.directory: Looking up address: 0x83c0
      0: system.ruby.dir_cntrl0.directory: Looking up address: 0x8400
      0: system.ruby.dir_cntrl0.directory: Looking up address: 0x8400
      0: system.ruby.dir_cntrl0.directory: Looking up address: 0x8440
      0: system.ruby.dir_cntrl0.directory: Looking up address: 0x8440
      0: system.ruby.dir_cntrl0.directory: Looking up address: 0x8480
      0: system.ruby.dir_cntrl0.directory: Looking up address: 0x8480
      0: system.ruby.dir_cntrl0.directory: Looking up address: 0x84c0
      0: system.ruby.dir_cntrl0.directory: Looking up address: 0x84c0
      0: system.ruby.dir_cntrl0.directory: Looking up address: 0x8500
      0: system.ruby.dir_cntrl0.directory: Looking up address: 0x8500
      0: system.ruby.dir_cntrl0.directory: Looking up address: 0x8540
      0: system.ruby.dir_cntrl0.directory: Looking up address: 0x8540
      0: system.ruby.dir_cntrl0.directory: Looking up address: 0x8580
      0: system.ruby.dir_cntrl0.directory: Looking up address: 0x8580
      0: system.ruby.dir_cntrl0.directory: Looking up address: 0x85c0
      0: system.ruby.dir_cntrl0.directory: Looking up address: 0x85c0
      0: system.ruby.dir_cntrl0.directory: Looking up address: 0x8600
      0: system.ruby.dir_cntrl0.directory: Looking up address: 0x8600
      0: system.ruby.dir_cntrl0.directory: Looking up address: 0x8640
      0: system.ruby.dir_cntrl0.directory: Looking up address: 0x8640
      0: system.ruby.dir_cntrl0.directory: Looking up address: 0x8680
      0: system.ruby.dir_cntrl0.directory: Looking up address: 0x8680
      0: system.ruby.dir_cntrl0.directory: Looking up address: 0x86c0
      0: system.ruby.dir_cntrl0.directory: Looking up address: 0x86c0
      0: system.ruby.dir_cntrl0.directory: Looking up address: 0x8700
      0: system.ruby.dir_cntrl0.directory: Looking up address: 0x8700
      0: system.ruby.dir_cntrl0.directory: Looking up address: 0x8740
      0: system.ruby.dir_cntrl0.directory: Looking up address: 0x8740
      0: system.ruby.dir_cntrl0.directory: Looking up address: 0x8780
      0: system.ruby.dir_cntrl0.directory: Looking up address: 0x8780
      0: system.ruby.dir_cntrl0.directory: Looking up address: 0x87c0
      0: system.ruby.dir_cntrl0.directory: Looking up address: 0x87c0
      0: system.ruby.dir_cntrl0.directory: Looking up address: 0x8800
      0: system.ruby.dir_cntrl0.directory: Looking up address: 0x8800
      0: system.ruby.dir_cntrl0.directory: Looking up address: 0x8840
      0: system.ruby.dir_cntrl0.directory: Looking up address: 0x8840
      0: system.ruby.dir_cntrl0.directory: Looking up address: 0x8880
      0: system.ruby.dir_cntrl0.directory: Looking up address: 0x8880
      0: system.ruby.dir_cntrl0.directory: Looking up address: 0x88c0
      0: system.ruby.dir_cntrl0.directory: Looking up address: 0x88c0
      0: system.ruby.dir_cntrl0.directory: Looking up address: 0x8900
      0: system.ruby.dir_cntrl0.directory: Looking up address: 0x8900
      0: system.ruby.dir_cntrl0.directory: Looking up address: 0x8940
      0: system.ruby.dir_cntrl0.directory: Looking up address: 0x8940
      0: system.ruby.dir_cntrl0.directory: Looking up address: 0x8980
      0: system.ruby.dir_cntrl0.directory: Looking up address: 0x8980
      0: system.ruby.dir_cntrl0.directory: Looking up address: 0x89c0
      0: system.ruby.dir_cntrl0.directory: Looking up address: 0x89c0
      0: system.ruby.dir_cntrl0.directory: Looking up address: 0x8a00
      0: system.ruby.dir_cntrl0.directory: Looking up address: 0x8a00
      0: system.ruby.dir_cntrl0.directory: Looking up address: 0x8a40
      0: system.ruby.dir_cntrl0.directory: Looking up address: 0x8a40
      0: system.ruby.dir_cntrl0.directory: Looking up address: 0x8a80
      0: system.ruby.dir_cntrl0.directory: Looking up address: 0x8a80
      0: system.ruby.dir_cntrl0.directory: Looking up address: 0x8ac0
      0: system.ruby.dir_cntrl0.directory: Looking up address: 0x8ac0
      0: system.ruby.dir_cntrl0.directory: Looking up address: 0x8b00
      0: system.ruby.dir_cntrl0.directory: Looking up address: 0x8b00
      0: system.ruby.dir_cntrl0.directory: Looking up address: 0x8b40
[...]
32417000: system.ruby.l1_cntrl0.L1Dcache: No tag match for address: 0x27cc0
32418000: system.ruby.l1_cntrl0.L1Dcache: No tag match for address: 0x27cc0
32418000: system.ruby.l1_cntrl0.L1Dcache: No tag match for address: 0x27cc0
32419000: system.ruby.l1_cntrl0.L1Dcache: No tag match for address: 0x27cc0
32419000: system.ruby.l1_cntrl0.L1Dcache: No tag match for address: 0x27cc0
32420000: system.ruby.l1_cntrl0.L1Dcache: address: 0x80200 found
32420000: system.ruby.l1_cntrl0.L1Icache: No tag match for address: 0x80200
32420000: system.ruby.l1_cntrl0.L1Dcache: address: 0x80200 found
32420000: system.ruby.l1_cntrl0.L1Icache: No tag match for address: 0x80200
32421000: system.ruby.l1_cntrl0.L1Dcache: No tag match for address: 0x27cc0
32421000: system.ruby.l1_cntrl0.L1Dcache: No tag match for address: 0x27cc0
32422000: system.ruby.l1_cntrl0.L1Dcache: No tag match for address: 0x27cc0
32422000: system.ruby.l1_cntrl0.L1Dcache: No tag match for address: 0x27cc0
32423000: system.ruby.l1_cntrl0.L1Dcache: No tag match for address: 0x27cc0
32423000: system.ruby.l1_cntrl0.L1Dcache: No tag match for address: 0x27cc0
32424000: system.ruby.l1_cntrl0.L1Dcache: address: 0x80200 found
32424000: system.ruby.l1_cntrl0.L1Icache: No tag match for address: 0x80200
32424000: global: Testing Lock for addr: 0x80200 cur -1 con 0
32424000: system.ruby.l1_cntrl0.L1Dcache: address: 0x80200 found
32424000: system.ruby.l1_cntrl0.L1Icache: No tag match for address: 0x80200
32425000: system.ruby.l1_cntrl0.L1Dcache: No tag match for address: 0x27cc0
32425000: system.ruby.l1_cntrl0.L1Dcache: No tag match for address: 0x27cc0
32426000: system.ruby.l1_cntrl0.L1Dcache: address: 0x80200 found
32426000: system.ruby.l1_cntrl0.L1Icache: No tag match for address: 0x80200
32426000: global: Testing Lock for addr: 0x80200 cur -1 con 0
32426000: system.ruby.l1_cntrl0.L1Dcache: address: 0x80200 found
32426000: system.ruby.l1_cntrl0.L1Icache: No tag match for address: 0x80200
32427000: system.ruby.l1_cntrl0.L1Dcache: No tag match for address: 0x27cc0
32427000: system.ruby.l1_cntrl0.L1Dcache: No tag match for address: 0x27cc0
32428000: system.ruby.l1_cntrl0.L1Dcache: No tag match for address: 0x27cc0
32428000: system.ruby.l1_cntrl0.L1Dcache: No tag match for address: 0x27cc0
32429000: system.ruby.l1_cntrl0.L1Dcache: address: 0x80200 found
32429000: system.ruby.l1_cntrl0.L1Icache: No tag match for address: 0x80200
32429000: global: Testing Lock for addr: 0x80200 cur -1 con 0
32429000: system.ruby.l1_cntrl0.L1Dcache: address: 0x80200 found
32429000: system.ruby.l1_cntrl0.L1Icache: No tag match for address: 0x80200
32430000: system.ruby.l1_cntrl0.L1Dcache: No tag match for address: 0x27cc0
32430000: system.ruby.l1_cntrl0.L1Dcache: No tag match for address: 0x27cc0
32431000: system.ruby.l1_cntrl0.L1Dcache: address: 0x801c0 found
32431000: system.ruby.l1_cntrl0.L1Icache: No tag match for address: 0x801c0
32431000: global: Testing Lock for addr: 0x801c0 cur -1 con 0
32431000: system.ruby.l1_cntrl0.L1Dcache: address: 0x801c0 found
32431000: system.ruby.l1_cntrl0.L1Icache: No tag match for address: 0x801c0
32432000: system.ruby.l1_cntrl0.L1Dcache: No tag match for address: 0x27cc0
32432000: system.ruby.l1_cntrl0.L1Dcache: No tag match for address: 0x27cc0
32433000: system.ruby.l1_cntrl0.L1Dcache: No tag match for address: 0x27cc0
32433000: system.ruby.l1_cntrl0.L1Dcache: No tag match for address: 0x27cc0
32434000: system.ruby.l1_cntrl0.L1Dcache: address: 0x801c0 found
32434000: system.ruby.l1_cntrl0.L1Icache: No tag match for address: 0x801c0
32434000: global: Testing Lock for addr: 0x801c0 cur -1 con 0
32434000: system.ruby.l1_cntrl0.L1Dcache: address: 0x801c0 found
32434000: system.ruby.l1_cntrl0.L1Icache: No tag match for address: 0x801c0
32435000: system.ruby.l1_cntrl0.L1Dcache: No tag match for address: 0x27cc0
32435000: system.ruby.l1_cntrl0.L1Dcache: No tag match for address: 0x27cc0
32436000: system.ruby.l1_cntrl0.L1Dcache: address: 0x801c0 found
32436000: system.ruby.l1_cntrl0.L1Icache: No tag match for address: 0x801c0
32436000: global: Testing Lock for addr: 0x801c0 cur -1 con 0
32436000: system.ruby.l1_cntrl0.L1Dcache: address: 0x801c0 found
32436000: system.ruby.l1_cntrl0.L1Icache: No tag match for address: 0x801c0
32437000: system.ruby.l1_cntrl0.L1Dcache: No tag match for address: 0x27cc0
32437000: system.ruby.l1_cntrl0.L1Dcache: No tag match for address: 0x27cc0
32438000: system.ruby.l1_cntrl0.L1Dcache: address: 0x94b80 found
32438000: system.ruby.l1_cntrl0.L1Icache: No tag match for address: 0x94b80
32438000: system.ruby.l1_cntrl0.L1Dcache: address: 0x94b80 found
32438000: system.ruby.l1_cntrl0.L1Icache: No tag match for address: 0x94b80
32439000: system.ruby.l1_cntrl0.L1Dcache: No tag match for address: 0x27d00
32439000: system.ruby.l1_cntrl0.L1Icache: No tag match for address: 0x27d00
32439000: system.ruby.l1_cntrl0.L1Icache: address: 0x27d00
32439000: system.ruby.l1_cntrl0.L1Icache: Allocate clearing lock for addr: 27d00
32439000: system.ruby.l1_cntrl0.L1Dcache: No tag match for address: 0x27d00
32443000: system.ruby.l2_cntrl0.L2cache: No tag match for address: 0x27d00
32443000: system.ruby.l2_cntrl0.L2cache: address: 0x27d00
32443000: system.ruby.l2_cntrl0.L2cache: Allocate clearing lock for addr: 27d00
32447000: system.ruby.dir_cntrl0.directory: Looking up address: 0x27d00
32447000: system.ruby.dir_cntrl0.directory: Looking up address: 0x27d00
32447000: system.ruby.dir_cntrl0.directory: Looking up address: 0x27d00
32487000: system.ruby.dir_cntrl0.directory: Looking up address: 0x27d00
32487000: system.ruby.dir_cntrl0.directory: Looking up address: 0x27d00
32487000: system.ruby.dir_cntrl0.directory: Looking up address: 0x27d00
32487000: system.ruby.dir_cntrl0.directory: Looking up address: 0x27d00
32494000: system.ruby.l1_cntrl0.L1Dcache: No tag match for address: 0x27d00
32494000: system.ruby.l1_cntrl0.L1Dcache: No tag match for address: 0x27d00
32494000: system.ruby.l1_cntrl0.L1Dcache: No tag match for address: 0x27d00
32495000: system.ruby.l1_cntrl0.L1Dcache: No tag match for address: 0x27d00
32495000: system.ruby.l1_cntrl0.L1Dcache: No tag match for address: 0x27d00
32496000: system.ruby.l1_cntrl0.L1Dcache: address: 0x94b80 found
32496000: system.ruby.l1_cntrl0.L1Icache: No tag match for address: 0x94b80
32496000: system.ruby.l1_cntrl0.L1Dcache: address: 0x94b80 found
32496000: system.ruby.l1_cntrl0.L1Icache: No tag match for address: 0x94b80
32497000: system.ruby.l1_cntrl0.L1Dcache: No tag match for address: 0xc040
32497000: system.ruby.l1_cntrl0.L1Dcache: No tag match for address: 0xc040
32498000: system.ruby.l1_cntrl0.L1Dcache: No tag match for address: 0xc000
32498000: system.ruby.l1_cntrl0.L1Dcache: No tag match for address: 0xc000
32499000: system.ruby.l1_cntrl0.L1Dcache: No tag match for address: 0xc000
32499000: system.ruby.l1_cntrl0.L1Dcache: No tag match for address: 0xc000
32500000: system.ruby.l1_cntrl0.L1Dcache: address: 0x80280 found
32500000: system.ruby.l1_cntrl0.L1Icache: No tag match for address: 0x80280
32500000: global: Testing Lock for addr: 0x80280 cur -1 con 0
32500000: system.ruby.l1_cntrl0.L1Dcache: address: 0x80280 found
32500000: system.ruby.l1_cntrl0.L1Icache: No tag match for address: 0x80280
32501000: system.ruby.l1_cntrl0.L1Dcache: No tag match for address: 0xc000
32501000: system.ruby.l1_cntrl0.L1Dcache: No tag match for address: 0xc000
32502000: system.ruby.l1_cntrl0.L1Dcache: address: 0x80240 found
32502000: system.ruby.l1_cntrl0.L1Icache: No tag match for address: 0x80240
32502000: system.ruby.l1_cntrl0.L1Dcache: address: 0x80240 found
32502000: system.ruby.l1_cntrl0.L1Icache: No tag match for address: 0x80240
32503000: system.ruby.l1_cntrl0.L1Dcache: No tag match for address: 0xc000
32503000: system.ruby.l1_cntrl0.L1Dcache: No tag match for address: 0xc000
32504000: system.ruby.l1_cntrl0.L1Dcache: No tag match for address: 0xc000
32504000: system.ruby.l1_cntrl0.L1Dcache: No tag match for address: 0xc000
32505000: system.ruby.l1_cntrl0.L1Dcache: No tag match for address: 0xc000
32505000: system.ruby.l1_cntrl0.L1Dcache: No tag match for address: 0xc000
32506000: system.ruby.l1_cntrl0.L1Dcache: No tag match for address: 0xc000
32506000: system.ruby.l1_cntrl0.L1Dcache: No tag match for address: 0xc000
32507000: system.ruby.l1_cntrl0.L1Dcache: No tag match for address: 0x80440
32507000: system.ruby.l1_cntrl0.L1Dcache: No tag match for address: 0x80440
32507000: system.ruby.l1_cntrl0.L1Dcache: address: 0x80440
32507000: system.ruby.l1_cntrl0.L1Dcache: Allocate clearing lock for addr: 80440
32507000: system.ruby.l1_cntrl0.L1Dcache: address: 0x80440 found
32507000: system.ruby.l1_cntrl0.L1Icache: No tag match for address: 0x80440
32511000: system.ruby.l2_cntrl0.L2cache: No tag match for address: 0x80440
32511000: system.ruby.l2_cntrl0.L2cache: address: 0x80440
32511000: system.ruby.l2_cntrl0.L2cache: Allocate clearing lock for addr: 80440
32515000: system.ruby.dir_cntrl0.directory: Looking up address: 0x80440
32515000: system.ruby.dir_cntrl0.directory: Looking up address: 0x80440
32515000: system.ruby.dir_cntrl0.directory: Looking up address: 0x80440
32555000: system.ruby.dir_cntrl0.directory: Looking up address: 0x80440
32555000: system.ruby.dir_cntrl0.directory: Looking up address: 0x80440
32555000: system.ruby.dir_cntrl0.directory: Looking up address: 0x80440
32555000: system.ruby.dir_cntrl0.directory: Looking up address: 0x80440
32562000: system.ruby.l1_cntrl0.L1Dcache: address: 0x80440 found
32562000: system.ruby.l1_cntrl0.L1Icache: No tag match for address: 0x80440
32562000: system.ruby.l1_cntrl0.L1Dcache: address: 0x80440 found
32562000: system.ruby.l1_cntrl0.L1Icache: No tag match for address: 0x80440
32563000: system.ruby.l1_cntrl0.L1Dcache: No tag match for address: 0xc000
32563000: system.ruby.l1_cntrl0.L1Dcache: No tag match for address: 0xc000
32564000: system.ruby.l1_cntrl0.L1Dcache: No tag match for address: 0xc000
32564000: system.ruby.l1_cntrl0.L1Dcache: No tag match for address: 0xc000
32565000: system.ruby.l1_cntrl0.L1Dcache: No tag match for address: 0xc000
32565000: system.ruby.l1_cntrl0.L1Dcache: No tag match for address: 0xc000
32566000: system.ruby.l1_cntrl0.L1Dcache: No tag match for address: 0xc000
32566000: system.ruby.l1_cntrl0.L1Dcache: No tag match for address: 0xc000
32567000: system.ruby.l1_cntrl0.L1Dcache: No tag match for address: 0xc000
32567000: system.ruby.l1_cntrl0.L1Dcache: No tag match for address: 0xc000
32568000: system.ruby.l1_cntrl0.L1Dcache: No tag match for address: 0xc000
32568000: system.ruby.l1_cntrl0.L1Dcache: No tag match for address: 0xc000
32569000: system.ruby.l1_cntrl0.L1Dcache: No tag match for address: 0xc000
32569000: system.ruby.l1_cntrl0.L1Dcache: No tag match for address: 0xc000
32570000: system.ruby.l1_cntrl0.L1Dcache: No tag match for address: 0xc000
32570000: system.ruby.l1_cntrl0.L1Dcache: No tag match for address: 0xc000
32571000: system.ruby.l1_cntrl0.L1Dcache: address: 0x80500 found
32571000: system.ruby.l1_cntrl0.L1Icache: No tag match for address: 0x80500
32571000: global: Testing Lock for addr: 0x80500 cur -1 con 0
32571000: system.ruby.l1_cntrl0.L1Dcache: address: 0x80500 found
32571000: system.ruby.l1_cntrl0.L1Icache: No tag match for address: 0x80500
32572000: system.ruby.l1_cntrl0.L1Dcache: No tag match for address: 0xc000
32572000: system.ruby.l1_cntrl0.L1Dcache: No tag match for address: 0xc000
32573000: system.ruby.l1_cntrl0.L1Dcache: address: 0x804c0 found
32573000: system.ruby.l1_cntrl0.L1Icache: No tag match for address: 0x804c0
32573000: system.ruby.l1_cntrl0.L1Dcache: address: 0x804c0 found
32573000: system.ruby.l1_cntrl0.L1Icache: No tag match for address: 0x804c0
32574000: system.ruby.l1_cntrl0.L1Dcache: No tag match for address: 0xc000
32574000: system.ruby.l1_cntrl0.L1Dcache: No tag match for address: 0xc000
32575000: system.ruby.l1_cntrl0.L1Dcache: No tag match for address: 0xc000
32575000: system.ruby.l1_cntrl0.L1Dcache: No tag match for address: 0xc000
32576000: system.ruby.l1_cntrl0.L1Dcache: No tag match for address: 0xc000
32576000: system.ruby.l1_cntrl0.L1Dcache: No tag match for address: 0xc000
32577000: system.ruby.l1_cntrl0.L1Dcache: No tag match for address: 0xc000
32577000: system.ruby.l1_cntrl0.L1Dcache: No tag match for address: 0xc000
32578000: system.ruby.l1_cntrl0.L1Dcache: No tag match for address: 0xc000
32578000: system.ruby.l1_cntrl0.L1Dcache: No tag match for address: 0xc000
32579000: system.ruby.l1_cntrl0.L1Dcache: No tag match for address: 0xc000
32579000: system.ruby.l1_cntrl0.L1Dcache: No tag match for address: 0xc000
32580000: system.ruby.l1_cntrl0.L1Dcache: address: 0x94b80 found
32580000: system.ruby.l1_cntrl0.L1Icache: No tag match for address: 0x94b80
32580000: system.ruby.l1_cntrl0.L1Dcache: address: 0x94b80 found
32580000: system.ruby.l1_cntrl0.L1Icache: No tag match for address: 0x94b80
32581000: system.ruby.l1_cntrl0.L1Dcache: No tag match for address: 0xc000
32581000: system.ruby.l1_cntrl0.L1Dcache: No tag match for address: 0xc000
32582000: system.ruby.l1_cntrl0.L1Dcache: address: 0x94bc0 found
32582000: system.ruby.l1_cntrl0.L1Icache: No tag match for address: 0x94bc0
32582000: system.ruby.l1_cntrl0.L1Dcache: address: 0x94bc0 found
32582000: system.ruby.l1_cntrl0.L1Icache: No tag match for address: 0x94bc0
32583000: system.ruby.l1_cntrl0.L1Dcache: No tag match for address: 0xc000
32583000: system.ruby.l1_cntrl0.L1Dcache: No tag match for address: 0xc000
32584000: system.ruby.l1_cntrl0.L1Dcache: address: 0x94bc0 found
32584000: system.ruby.l1_cntrl0.L1Icache: No tag match for address: 0x94bc0
32584000: system.ruby.l1_cntrl0.L1Dcache: address: 0x94bc0 found
32584000: system.ruby.l1_cntrl0.L1Icache: No tag match for address: 0x94bc0
32585000: system.ruby.l1_cntrl0.L1Dcache: No tag match for address: 0xa900
32585000: system.ruby.l1_cntrl0.L1Dcache: No tag match for address: 0xa900
32586000: system.ruby.l1_cntrl0.L1Dcache: No tag match for address: 0xa900
32586000: system.ruby.l1_cntrl0.L1Dcache: No tag match for address: 0xa900
32587000: system.ruby.l1_cntrl0.L1Dcache: No tag match for address: 0xa900
32587000: system.ruby.l1_cntrl0.L1Dcache: No tag match for address: 0xa900
32588000: system.ruby.l1_cntrl0.L1Dcache: No tag match for address: 0xa900
32588000: system.ruby.l1_cntrl0.L1Dcache: No tag match for address: 0xa900
32589000: system.ruby.l1_cntrl0.L1Dcache: No tag match for address: 0xa900
32589000: system.ruby.l1_cntrl0.L1Dcache: No tag match for address: 0xa900
32590000: system.ruby.l1_cntrl0.L1Dcache: No tag match for address: 0xa900
32590000: system.ruby.l1_cntrl0.L1Dcache: No tag match for address: 0xa900
32591000: system.ruby.l1_cntrl0.L1Dcache: No tag match for address: 0xa900
32591000: system.ruby.l1_cntrl0.L1Dcache: No tag match for address: 0xa900
32592000: system.ruby.l1_cntrl0.L1Dcache: No tag match for address: 0xa900
32592000: system.ruby.l1_cntrl0.L1Dcache: No tag match for address: 0xa900
32593000: system.ruby.l1_cntrl0.L1Dcache: address: 0x94bc0 found
32593000: system.ruby.l1_cntrl0.L1Icache: No tag match for address: 0x94bc0
32593000: global: Testing Lock for addr: 0x94bc0 cur -1 con 0
32593000: system.ruby.l1_cntrl0.L1Dcache: address: 0x94bc0 found
32593000: system.ruby.l1_cntrl0.L1Icache: No tag match for address: 0x94bc0
32594000: system.ruby.l1_cntrl0.L1Dcache: No tag match for address: 0x13280
32594000: system.ruby.l1_cntrl0.L1Dcache: No tag match for address: 0x13280
32595000: system.ruby.l1_cntrl0.L1Dcache: address: 0x94bc0 found
32595000: system.ruby.l1_cntrl0.L1Icache: No tag match for address: 0x94bc0
32595000: global: Testing Lock for addr: 0x94bc0 cur -1 con 0
32595000: system.ruby.l1_cntrl0.L1Dcache: address: 0x94bc0 found
32595000: system.ruby.l1_cntrl0.L1Icache: No tag match for address: 0x94bc0
32596000: system.ruby.l1_cntrl0.L1Dcache: No tag match for address: 0x13280
32596000: system.ruby.l1_cntrl0.L1Dcache: No tag match for address: 0x13280
32597000: system.ruby.l1_cntrl0.L1Dcache: No tag match for address: 0x13280
32597000: system.ruby.l1_cntrl0.L1Dcache: No tag match for address: 0x13280
32598000: system.ruby.l1_cntrl0.L1Dcache: address: 0x94b80 found
32598000: system.ruby.l1_cntrl0.L1Icache: No tag match for address: 0x94b80
32598000: global: Testing Lock for addr: 0x94b80 cur -1 con 0
32598000: system.ruby.l1_cntrl0.L1Dcache: address: 0x94b80 found
32598000: system.ruby.l1_cntrl0.L1Icache: No tag match for address: 0x94b80
32599000: system.ruby.l1_cntrl0.L1Dcache: No tag match for address: 0x13280
32599000: system.ruby.l1_cntrl0.L1Dcache: No tag match for address: 0x13280
32600000: system.ruby.l1_cntrl0.L1Dcache: No tag match for address: 0x132c0
32600000: system.ruby.l1_cntrl0.L1Icache: No tag match for address: 0x132c0
32600000: system.ruby.l1_cntrl0.L1Icache: address: 0x132c0
32600000: system.ruby.l1_cntrl0.L1Icache: Allocate clearing lock for addr: 132c0
32600000: system.ruby.l1_cntrl0.L1Dcache: No tag match for address: 0x132c0
32604000: system.ruby.l2_cntrl0.L2cache: No tag match for address: 0x132c0
32604000: system.ruby.l2_cntrl0.L2cache: address: 0x132c0
32604000: system.ruby.l2_cntrl0.L2cache: Allocate clearing lock for addr: 132c0
32608000: system.ruby.dir_cntrl0.directory: Looking up address: 0x132c0
32608000: system.ruby.dir_cntrl0.directory: Looking up address: 0x132c0
32608000: system.ruby.dir_cntrl0.directory: Looking up address: 0x132c0
32661500: system.ruby.dir_cntrl0.directory: Looking up address: 0x132c0
32661500: system.ruby.dir_cntrl0.directory: Looking up address: 0x132c0
32661500: system.ruby.dir_cntrl0.directory: Looking up address: 0x132c0
32661500: system.ruby.dir_cntrl0.directory: Looking up address: 0x132c0
32668500: system.ruby.l1_cntrl0.L1Dcache: No tag match for address: 0x132c0
32668500: system.ruby.l1_cntrl0.L1Dcache: No tag match for address: 0x132c0
32668500: system.ruby.l1_cntrl0.L1Dcache: No tag match for address: 0x132c0
32669500: system.ruby.l1_cntrl0.L1Dcache: address: 0x94b80 found
32669500: system.ruby.l1_cntrl0.L1Icache: No tag match for address: 0x94b80
32669500: global: Testing Lock for addr: 0x94b80 cur -1 con 0
32669500: system.ruby.l1_cntrl0.L1Dcache: address: 0x94b80 found
32669500: system.ruby.l1_cntrl0.L1Icache: No tag match for address: 0x94b80
32670500: system.ruby.l1_cntrl0.L1Dcache: No tag match for address: 0x132c0
32670500: system.ruby.l1_cntrl0.L1Dcache: No tag match for address: 0x132c0
32671500: system.ruby.l1_cntrl0.L1Dcache: No tag match for address: 0x132c0
32671500: system.ruby.l1_cntrl0.L1Dcache: No tag match for address: 0x132c0
32672500: system.ruby.l1_cntrl0.L1Dcache: address: 0x94b80 found
32672500: system.ruby.l1_cntrl0.L1Icache: No tag match for address: 0x94b80
32672500: global: Testing Lock for addr: 0x94b80 cur -1 con 0
32672500: system.ruby.l1_cntrl0.L1Dcache: address: 0x94b80 found
32672500: system.ruby.l1_cntrl0.L1Icache: No tag match for address: 0x94b80
32673500: system.ruby.l1_cntrl0.L1Dcache: No tag match for address: 0x132c0
32673500: system.ruby.l1_cntrl0.L1Dcache: No tag match for address: 0x132c0
32674500: system.ruby.l1_cntrl0.L1Dcache: No tag match for address: 0x132c0
32674500: system.ruby.l1_cntrl0.L1Dcache: No tag match for address: 0x132c0
32675500: system.ruby.l1_cntrl0.L1Dcache: No tag match for address: 0x132c0
32675500: system.ruby.l1_cntrl0.L1Dcache: No tag match for address: 0x132c0
32676500: system.ruby.l1_cntrl0.L1Dcache: No tag match for address: 0x132c0
32676500: system.ruby.l1_cntrl0.L1Dcache: No tag match for address: 0x132c0
32677500: system.ruby.l1_cntrl0.L1Dcache: No tag match for address: 0x132c0
32677500: system.ruby.l1_cntrl0.L1Dcache: No tag match for address: 0x132c0
32678500: system.ruby.l1_cntrl0.L1Dcache: No tag match for address: 0x132c0
32678500: system.ruby.l1_cntrl0.L1Dcache: No tag match for address: 0x132c0
32679500: system.ruby.l1_cntrl0.L1Dcache: No tag match for address: 0x132c0
32679500: system.ruby.l1_cntrl0.L1Dcache: No tag match for address: 0x132c0
Exiting @ tick 32680000 because target called exit()
